17
2nta1ma-2
N        1.15062800       1.77705200      -0.54515000
H        0.19058100       1.39755000      -0.50721700
H        1.77301400       0.91666300      -0.63809200
C        1.46096000       2.49017900       0.71706800
H        2.47504900       2.88528700       0.66642200
H        0.74583300       3.29836800       0.86837700
H        1.38429200       1.76150900       1.52303600
H        1.24197400       2.37662200      -1.36242000
N       -2.32852700       0.00690900      -0.08092500
O       -1.58998400       0.93079500      -0.43859900
O       -3.52155900      -0.01911900      -0.21497400
O       -1.77839600      -1.05617300       0.50233600
H       -0.75918800      -0.91841700       0.57382500
N        1.53982000      -1.25910800      -0.00214800
O        0.69746300      -0.60535800       0.71721300
O        2.41497600      -0.57474800      -0.60218100
O        1.48365300      -2.46697400      -0.09239300
17
2nta1ma-1
N       -1.30567200       1.63644500       0.47804600
H       -1.47482600       1.81318800       1.46644500
H       -0.32677800       1.31697400       0.38904000
C       -1.58530300       2.81806100      -0.36641500
H       -1.38847900       2.55140600      -1.40395300
H       -2.63153200       3.10127900      -0.25510400
H       -0.93753400       3.64379000      -0.07313100
H       -1.87894700       0.77924300       0.20394100
N        2.28286500       0.14010700      -0.06771500
O        1.43536700       1.03973000      -0.08391200
O        3.44577200       0.27828000      -0.33381900
O        1.89697500      -1.08868500       0.26810800
H        0.88373300      -1.08641100       0.46676500
N       -1.41702500      -1.42605400      -0.02662400
O       -2.39783300      -0.67347300      -0.28539600
O       -0.56229600      -0.97993100       0.82423600
O       -1.27485900      -2.51108600      -0.54939900
17
2nta1ma-3
N       -1.46706800      -1.60087300       0.49088000
H       -0.59120600      -1.79159100      -0.01365800
C       -2.64535600      -1.65307700      -0.41132500
H       -2.74829900      -2.65503300      -0.82796000
H       -3.53394400      -1.38246500       0.15723400
H       -2.49662100      -0.91802300      -1.20011400
H       -1.54673800      -2.25886900       1.26354700
N       -0.84137900       1.45427100       0.11280100
O       -1.93064200       1.45419300      -0.45338000
O        0.13811100       2.08938500      -0.34775000
O       -0.67211600       0.77786000       1.17971400
H       -1.30750000      -0.60837000       0.88457300
N        2.01016700      -0.54733900      -0.16808300
O        0.94294300      -0.82100400      -0.72429200
O        2.86107300      -1.33903200       0.14849600
O        2.25866400       0.72830400       0.10083300
H        1.40013900       1.27275300      -0.07383400
