23
1dma1tma-01
N       -1.34501300      -0.01943200       0.08853200
C       -1.47972700      -1.13196000      -0.83850900
H       -0.68756100      -1.07591700      -1.59071800
H       -1.37311300      -2.07769300      -0.29880300
H       -2.45870400      -1.13500000      -1.35359300
C       -2.32000100      -0.09829100       1.16208000
H       -2.20757200      -1.04715300       1.69442600
H       -2.15465800       0.71492100       1.87494600
H       -3.36098800      -0.02903800       0.79289300
C       -1.42375700       1.25334200      -0.61067600
H       -1.27131900       2.07318500       0.09780000
H       -0.63641100       1.30098400      -1.36889600
H       -2.40077900       1.40108100      -1.10810800
N        1.71875400      -0.03384600      -0.22743400
C        2.35739900       1.21268900       0.14855600
C        2.46058900      -1.20070500       0.21030000
H        0.77147200      -0.06385000       0.15036800
H        3.31890900       1.31017600      -0.36918800
H        1.72895300       2.05485000      -0.15700100
H        2.55286400       1.30488500       1.23325700
H        3.42559800      -1.24529900      -0.30812000
H        2.66558800      -1.21577600       1.29709900
H        1.90451000      -2.10786700      -0.04455000
23
1dma1tma-02
N        1.27633300       0.02015100       0.06437400
C        1.75949100      -1.33436500       0.27127500
H        1.86218200      -1.53040700       1.34223200
H        1.03978400      -2.04930200      -0.13897800
H        2.73937200      -1.51229200      -0.21091300
C        1.06307000       0.29565700      -1.34668400
H        0.34580900      -0.42176900      -1.75724500
H        0.64415800       1.29893000      -1.46868900
H        1.99720000       0.23247800      -1.93576500
C        2.15941900       1.00152000       0.67028500
H        1.73510700       2.00254400       0.54974500
H        2.25891200       0.80016700       1.74055400
H        3.16989200       0.99576400       0.21948600
N       -1.78240100       0.00575000       0.62908000
C       -2.29011600       1.21488400       0.01179800
C       -2.21639200      -1.19434600      -0.05734800
H       -0.76285700       0.03733700       0.64644500
H       -3.37944100       1.26671400       0.12582900
H       -1.86270800       2.09037600       0.50922900
H       -2.06675400       1.28941000      -1.07055000
H       -3.30197600      -1.31212200       0.04186100
H       -1.98310100      -1.19810200      -1.14073900
H       -1.74593600      -2.07113200       0.39736100
23
1dma1tma-03
N       -1.31627800      -0.00002100      -0.12392000
C       -1.21817000       1.19424700       0.69600700
H       -0.27079200       1.17682700       1.24205400
H       -1.23669800       2.08533100       0.06000500
H       -2.04790000       1.27495300       1.42587700
C       -2.52874700       0.00023700      -0.91976600
H       -2.55209900       0.88630000      -1.56178100
H       -2.55227900      -0.88560700      -1.56207800
H       -3.44698400       0.00023500      -0.29910200
C       -1.21863400      -1.19439500       0.69589300
H       -1.23744300      -2.08543200       0.05982800
H       -0.27129600      -1.17739600       1.24202600
H       -2.04843400      -1.27486200       1.42571100
N        2.11126500      -0.00006900       0.43488600
C        2.06266000       1.20663400      -0.37599300
C        2.06264600      -1.20666400      -0.37617600
H        2.95267100      -0.00008300       1.00085100
H        1.10281100       1.23335500      -0.90192300
H        2.12317400       2.08973900       0.26690100
H        2.86793800       1.26603000      -1.12964600
H        1.10268200      -1.23339200      -0.90189400
H        2.86781100      -1.26586900      -1.12996700
H        2.12340300      -2.08985200       0.26658100
