42
3sa1am1ma1dma-105
S        0.24549600       1.92042700      -0.47151600
O        0.33092100       1.61038900       0.97347500
O        1.36672100       2.75000000      -0.93089700
O        0.10243200       0.66391700      -1.27507100
O       -1.06576800       2.75642400      -0.73664900
H       -1.85538600       2.15434600      -0.66156000
H        1.38978000      -0.34556200      -1.53999900
S       -3.66319100      -0.03935000       0.11973000
O       -3.20815100       0.05420700       1.51792900
O       -3.04615000       0.97534500      -0.76332700
O       -3.59474700      -1.39446200      -0.45268700
O       -5.24929900       0.26535300       0.14019900
H       -5.39850300       1.07838200       0.64236100
S        1.94386600      -2.03041100      -0.32839700
O        2.07914000      -1.05729600      -1.61242500
O        0.50009800      -2.43384400      -0.29076000
O        2.88255100      -3.10268400      -0.56183100
O        2.23518500      -1.15732600       0.84676100
N       -1.39609900      -1.49135100      -2.05912500
H       -1.10239300      -0.50210900      -1.99178200
H       -0.67687900      -2.03536100      -1.53691800
H       -2.31752300      -1.57440300      -1.57151000
H       -1.45670400      -1.79025700      -3.02773200
C       -0.08220000      -1.33832100       3.12391800
N       -0.57584600      -0.86774300       1.81343600
H       -0.31503000      -1.53447200       1.06435200
H       -1.59765200      -0.70010600       1.80626700
H        0.99504100      -1.48331300       3.04841500
H       -0.31555800      -0.59127100       3.88243600
H       -0.56815700      -2.28103800       3.37457200
H       -0.14299600       0.03926500       1.54568100
C        3.61471300       1.95703500       1.62319000
N        3.39467400       1.25432700       0.34019500
C        4.62470400       0.91399600      -0.40778900
H        2.87900200       0.36107100       0.53619800
H        4.15518100       2.88635300       1.43810000
H        2.63740600       2.17362400       2.05495200
H        4.19177000       1.31218200       2.28738100
H        5.15799800       1.82987200      -0.66610400
H        5.25140900       0.27449900       0.21499800
H        4.33741200       0.37185300      -1.30889500
H        2.76717800       1.84270200      -0.24349600
42
3sa1am1ma1dma-119
S        0.38606600      -1.82901300       0.72194800
O        0.51109000      -1.89544700      -0.75329000
O        1.51896200      -2.46634100       1.40414400
O        0.16873800      -0.41897700       1.17394500
O       -0.90219300      -2.63089400       1.15685900
H       -1.70625300      -2.11278200       0.88975400
H        1.34896800       0.72583900       1.15201800
S        1.88626600       2.03905200      -0.46589600
O        1.97630600       1.49100200       1.05279800
O        2.29039900       0.88527200      -1.32029800
O        0.43057500       2.32343500      -0.69482700
O        2.75514300       3.19174000      -0.50496100
H        2.90751200      -1.67809800       0.56307400
S       -3.61271600      -0.20736600      -0.45342700
O       -3.78259100       1.23461700      -0.18524600
O       -3.14667600      -0.48471300      -1.82586500
O       -2.84437500      -0.88109800       0.60702500
O       -5.07258000      -0.89070100      -0.33602500
H       -5.61251800      -0.58663000      -1.07862600
N       -0.48202100       0.17902100      -2.24881200
H       -0.21955900       1.05304400      -1.74926700
H       -0.03722400      -0.61473700      -1.73606500
H       -1.50984100       0.02476800      -2.23621500
H       -0.12448900       0.22086200      -3.19852600
C       -1.39558600       2.52741600       2.54837200
N       -1.47290000       1.80355500       1.26280100
H       -1.19918800       0.81254100       1.36698400
H       -2.42219300       1.79947700       0.84365800
H       -0.37113900       2.48026000       2.91720800
H       -1.68169400       3.56702700       2.39227700
H       -2.07170200       2.05977000       3.26328200
H       -0.80524000       2.18644500       0.56447700
N        3.53139800      -1.22148800      -0.13158400
H        2.97686300      -0.45168200      -0.58171000
C        4.69341200      -0.60446800       0.54451100
H        4.32283400       0.13694900       1.25270400
H        5.26466800      -1.37592100       1.06264600
H        5.31556000      -0.11069600      -0.20294000
C        3.86711200      -2.22159600      -1.16863800
H        4.45418500      -3.02423300      -0.72016300
H        2.93158500      -2.61923200      -1.56235600
H        4.43767200      -1.73462200      -1.96056600
42
3sa1am1ma1dma-29
S        0.24791000       1.92381700      -0.45881800
O       -1.06199800       2.76507700      -0.71125900
O        1.36760600       2.75199800      -0.92430900
O        0.09725300       0.67033200      -1.26654500
O        0.34347900       1.60742300       0.98397400
H        1.37756300      -0.34458200      -1.54091700
H       -1.85463800       2.16999400      -0.62039600
S       -3.68664100      -0.04072200       0.12989000
O       -3.03290700       0.97302600      -0.72967300
O       -3.71861300      -1.35657200      -0.55059100
O       -3.20196300      -0.08341100       1.51030800
O       -5.22307500       0.42350600       0.30176600
H       -5.62642800       0.48638400      -0.57488100
S        1.95140900      -2.03372600      -0.34191200
O        2.25855500      -1.16309000       0.83073900
O        0.50898300      -2.44092200      -0.28078600
O        2.06371800      -1.05822600      -1.62586100
O        2.88776000      -3.10390200      -0.59303900
N       -1.41301800      -1.48474800      -2.01450300
H       -1.11731000      -0.49611600      -1.93382500
H       -0.70145600      -2.03390400      -1.48696000
H       -2.34992300      -1.56864300      -1.55524600
H       -1.44894400      -1.77392000      -2.98740100
C       -0.04568700      -1.32081300       3.14908100
N       -0.54249700      -0.87559500       1.83108300
H       -1.56852200      -0.73837500       1.81297300
H       -0.13082400       0.03966300       1.55801700
H       -0.51089000      -2.27197400       3.40710500
H        1.03502000      -1.44219300       3.08128500
H       -0.30064600      -0.57180800       3.89858700
H       -0.26188300      -1.54265900       1.08935000
C        3.63776400       1.95338000       1.60668800
N        3.40532600       1.25449000       0.32374800
C        4.62783200       0.91801900      -0.43814700
H        2.89318200       0.35986700       0.52173900
H        4.17529900       2.88385400       1.41894400
H        2.66479400       2.16781400       2.04919700
H        4.22224300       1.30713700       2.26298400
H        5.15727800       1.83532900      -0.69924400
H        5.26184700       0.27731700       0.17593900
H        4.33177900       0.37844600      -1.33799000
H        2.77109100       1.84403100      -0.25164100
