17
1am1tma-48
N        2.64340800      -0.01436100       0.26730400
H        1.65328200      -0.01445000       0.52101200
H        3.05862400       0.84693000       0.60490300
H        3.09609700      -0.78330800       0.74907300
N       -0.46000000      -0.00132900       0.09989500
C       -0.44479400      -1.19036200      -0.73781800
C       -1.58863600      -0.00950900       1.01393100
C       -0.44152300       1.20570700      -0.71092500
H       -1.54573800       0.86879500       1.66475200
H       -2.56103300      -0.00128500       0.48528800
H       -1.54955700      -0.90324100       1.64360500
H        0.45230100      -1.18340200      -1.36335600
H       -0.41673100      -2.08505000      -0.10855800
H       -1.33425600      -1.25452900      -1.39275800
H        0.45549600       1.21136700      -1.33695800
H       -1.32936600       1.28651100      -1.36628900
H       -0.41326100       2.08647800      -0.06222700
17
1am1tma-51
N       -3.81216600       0.00003000       0.13189500
H       -3.58599300       0.00003000      -0.85623700
H       -3.38759100      -0.81976200       0.55046800
H       -3.38719500       0.81957100       0.55055800
N        1.16481300      -0.00000100      -0.40318200
C       -0.27656400      -0.00001800      -0.25099800
C        1.75464900      -1.19822100       0.16367700
C        1.75462100       1.19823400       0.16367400
H        2.83439800      -1.19910900      -0.01162400
H        1.58182900      -1.28248400       1.25509700
H        1.33150900      -2.08441700      -0.31851500
H       -0.70244600       0.88560000      -0.73263000
H       -0.70242800      -0.88564600      -0.73262600
H       -0.59447600      -0.00002100       0.81145500
H        1.33146000       2.08441900      -0.31852000
H        1.58179800       1.28249600       1.25509400
H        2.83436900       1.19914700      -0.01162700
17
1am1tma-57
N       -3.09226800       0.01920200       0.08315300
H       -3.25860000      -0.97152000       0.22103900
H       -3.96323900       0.50965000       0.25265000
H       -2.41961300       0.32138000       0.77964200
N        1.01972100      -0.00241200      -0.41561900
C        2.23675600      -0.06732100       0.36898600
C        0.29611800       1.22999600      -0.17137100
C        0.17877700      -1.16112300      -0.18710900
H       -0.60321800       1.26228600      -0.79211700
H       -0.01189200       1.33432600       0.89080600
H        0.92640800       2.08828000      -0.42283400
H        2.78912300      -0.97971000       0.12486000
H        2.87559400       0.79001600       0.13668200
H        2.03958000      -0.06489800       1.46030300
H        0.72350800      -2.07375000      -0.44713200
H       -0.14364400      -1.24612400       0.87230000
H       -0.71608100      -1.09677500      -0.81198000
