1sa_1hom_1w.log
 OpenBabel02281910223D
Gaussian kemi/andersx/programs/g09/g09 # opt freq wb97xd 6-31++g(d,p)
 31 28  0  0  0  0  0  0  0  0999 V2000
    1.8847   -0.4085    2.5890 O   0  0  0  0  0  0  0  0  0  0  0  0
    1.7397    0.4926    2.2424 H   0  0  0  0  0  0  0  0  0  0  0  0
    2.8056   -0.6157    2.3999 H   0  0  0  0  0  0  0  0  0  0  0  0
    0.3487   -1.8206   -0.1536 S   0  0  0  0  0  0  0  0  0  0  0  0
    1.6529   -2.2504   -0.6206 O   0  0  0  0  0  0  0  0  0  0  0  0
   -0.1157   -0.5017   -0.5612 O   0  0  0  0  0  0  0  0  0  0  0  0
   -0.6966   -2.9017   -0.6135 O   0  0  0  0  0  0  0  0  0  0  0  0
   -1.6119   -2.5300   -0.5725 H   0  0  0  0  0  0  0  0  0  0  0  0
    0.2407   -1.9699    1.4003 O   0  0  0  0  0  0  0  0  0  0  0  0
    0.9088   -1.3629    1.8822 H   0  0  0  0  0  0  0  0  0  0  0  0
   -2.1770    1.5069    1.0142 C   0  0  0  0  0  0  0  0  0  0  0  0
   -1.6013    2.7942    0.4130 C   0  0  0  0  0  0  0  0  0  0  0  0
   -0.4001    2.5874   -0.5094 C   0  0  0  0  0  0  0  0  0  0  0  0
    0.7892    1.9732    0.1674 C   0  0  0  0  0  0  0  0  0  0  0  0
    1.8651    1.4138   -0.7895 C   0  0  0  0  0  0  0  0  0  0  0  0
   -2.6707    0.5394   -0.0212 C   0  0  0  0  0  0  0  0  0  0  0  0
   -2.8147   -0.7045    0.5050 O   0  0  0  0  0  0  0  0  0  0  0  0
   -3.1632   -1.6335   -0.5129 O   0  0  0  0  0  0  0  0  0  0  0  0
   -3.2876   -1.0282   -1.2846 H   0  0  0  0  0  0  0  0  0  0  0  0
   -1.4464    0.9910    1.6418 H   0  0  0  0  0  0  0  0  0  0  0  0
   -2.3807    3.3062   -0.1579 H   0  0  0  0  0  0  0  0  0  0  0  0
   -3.0285    1.7499    1.6604 H   0  0  0  0  0  0  0  0  0  0  0  0
   -1.3222    3.4476    1.2442 H   0  0  0  0  0  0  0  0  0  0  0  0
   -0.6541    1.9735   -1.3785 H   0  0  0  0  0  0  0  0  0  0  0  0
   -0.0655    3.5471   -0.9256 H   0  0  0  0  0  0  0  0  0  0  0  0
   -2.9466    0.7541   -1.1797 O   0  0  0  0  0  0  0  0  0  0  0  0
    0.9308    1.9083    1.3731 O   0  0  0  0  0  0  0  0  0  0  0  0
    1.9421    1.7013   -1.9477 O   0  0  0  0  0  0  0  0  0  0  0  0
    2.6519    0.5598   -0.1011 O   0  0  0  0  0  0  0  0  0  0  0  0
    3.5438   -0.1459   -0.9449 O   0  0  0  0  0  0  0  0  0  0  0  0
    3.0519   -0.9901   -1.0286 H   0  0  0  0  0  0  0  0  0  0  0  0
  2  1  1  0  0  0  0
  3  1  1  0  0  0  0
  4  9  1  0  0  0  0
  5  4  2  0  0  0  0
  6  4  2  0  0  0  0
  7  8  1  0  0  0  0
  7  4  1  0  0  0  0
  9 10  1  0  0  0  0
 11 20  1  0  0  0  0
 11 22  1  0  0  0  0
 12 11  1  0  0  0  0
 12 23  1  0  0  0  0
 13 14  1  0  0  0  0
 13 12  1  0  0  0  0
 14 27  2  0  0  0  0
 15 29  1  0  0  0  0
 15 14  1  0  0  0  0
 16 17  1  0  0  0  0
 16 11  1  0  0  0  0
 18 17  1  0  0  0  0
 19 18  1  0  0  0  0
 21 12  1  0  0  0  0
 24 13  1  0  0  0  0
 25 13  1  0  0  0  0
 26 16  2  0  0  0  0
 28 15  2  0  0  0  0
 30 29  1  0  0  0  0
 31 30  1  0  0  0  0
M  END
$$$$
