1sa_1hom_1a.log
 OpenBabel02281910223D
Gaussian kemi/andersx/programs/g09/g09 # opt freq wb97xd 6-31++g(d,p)
 32 29  0  0  0  0  0  0  0  0999 V2000
    1.4692   -1.3886    2.4224 N   0  0  0  0  0  0  0  0  0  0  0  0
    1.6810   -2.3823    2.3692 H   0  0  0  0  0  0  0  0  0  0  0  0
    0.6435   -1.1680    1.7835 H   0  0  0  0  0  0  0  0  0  0  0  0
    1.2817   -1.1131    3.3828 H   0  0  0  0  0  0  0  0  0  0  0  0
   -0.7195   -1.7754   -0.3634 S   0  0  0  0  0  0  0  0  0  0  0  0
   -2.0756   -2.2355   -0.0662 O   0  0  0  0  0  0  0  0  0  0  0  0
   -0.2685   -0.6926    0.5745 O   0  0  0  0  0  0  0  0  0  0  0  0
    0.3014   -2.8263   -0.4865 O   0  0  0  0  0  0  0  0  0  0  0  0
    1.9178   -2.2602   -0.4269 H   0  0  0  0  0  0  0  0  0  0  0  0
   -0.7310   -1.0880   -1.8173 O   0  0  0  0  0  0  0  0  0  0  0  0
   -1.3756   -0.3584   -1.8258 H   0  0  0  0  0  0  0  0  0  0  0  0
    2.2057    1.7231   -1.0197 C   0  0  0  0  0  0  0  0  0  0  0  0
    1.5920    2.8833   -0.2267 C   0  0  0  0  0  0  0  0  0  0  0  0
    0.3238    2.5383    0.5536 C   0  0  0  0  0  0  0  0  0  0  0  0
   -0.8047    2.0132   -0.2908 C   0  0  0  0  0  0  0  0  0  0  0  0
   -1.9920    1.4312    0.5093 C   0  0  0  0  0  0  0  0  0  0  0  0
    2.5245    0.5188   -0.1731 C   0  0  0  0  0  0  0  0  0  0  0  0
    2.5109   -0.5802   -0.9377 O   0  0  0  0  0  0  0  0  0  0  0  0
    2.7512   -1.7684   -0.1992 O   0  0  0  0  0  0  0  0  0  0  0  0
    2.2474   -0.8320    2.0075 H   0  0  0  0  0  0  0  0  0  0  0  0
    1.5475    1.4084   -1.8322 H   0  0  0  0  0  0  0  0  0  0  0  0
    2.3284    3.2692    0.4839 H   0  0  0  0  0  0  0  0  0  0  0  0
    3.1462    2.0492   -1.4787 H   0  0  0  0  0  0  0  0  0  0  0  0
    1.3780    3.6836   -0.9409 H   0  0  0  0  0  0  0  0  0  0  0  0
    0.5219    1.8009    1.3372 H   0  0  0  0  0  0  0  0  0  0  0  0
   -0.0539    3.4218    1.0836 H   0  0  0  0  0  0  0  0  0  0  0  0
    2.7677    0.5283    1.0191 O   0  0  0  0  0  0  0  0  0  0  0  0
   -0.8211    2.0148   -1.5014 O   0  0  0  0  0  0  0  0  0  0  0  0
   -2.1825    1.6381    1.6740 O   0  0  0  0  0  0  0  0  0  0  0  0
   -2.7349    0.6711   -0.3209 O   0  0  0  0  0  0  0  0  0  0  0  0
   -3.7414   -0.0480    0.3703 O   0  0  0  0  0  0  0  0  0  0  0  0
   -3.3413   -0.9465    0.3275 H   0  0  0  0  0  0  0  0  0  0  0  0
  1  4  1  0  0  0  0
  2  1  1  0  0  0  0
  3  1  1  0  0  0  0
  5  6  2  0  0  0  0
  5  7  1  0  0  0  0
  8  5  2  0  0  0  0
  9 19  1  0  0  0  0
 10  5  1  0  0  0  0
 11 10  1  0  0  0  0
 12 13  1  0  0  0  0
 12 17  1  0  0  0  0
 13 22  1  0  0  0  0
 13 14  1  0  0  0  0
 14 26  1  0  0  0  0
 14 25  1  0  0  0  0
 15 16  1  0  0  0  0
 15 14  1  0  0  0  0
 16 29  2  0  0  0  0
 17 27  2  0  0  0  0
 18 19  1  0  0  0  0
 18 17  1  0  0  0  0
 20  1  1  0  0  0  0
 21 12  1  0  0  0  0
 23 12  1  0  0  0  0
 24 13  1  0  0  0  0
 28 15  2  0  0  0  0
 30 31  1  0  0  0  0
 30 16  1  0  0  0  0
 32 31  1  0  0  0  0
M  RAD  1   7   2
M  END
$$$$
