2sa_1hom_1w.log
 OpenBabel02281910223D
Gaussian kemi/andersx/programs/g09/g09 # opt freq wb97xd/6-31++g(d,p) geom=conne
 38 34  0  0  0  0  0  0  0  0999 V2000
   -1.5521   -2.3798   -2.9574 O   0  0  0  0  0  0  0  0  0  0  0  0
   -2.1559   -2.1935   -3.6817 H   0  0  0  0  0  0  0  0  0  0  0  0
   -0.9374   -1.6277   -2.9012 H   0  0  0  0  0  0  0  0  0  0  0  0
   -2.0532   -1.6953    0.2300 S   0  0  0  0  0  0  0  0  0  0  0  0
   -0.6699   -1.3486   -0.0551 O   0  0  0  0  0  0  0  0  0  0  0  0
   -2.4322   -1.9207    1.6111 O   0  0  0  0  0  0  0  0  0  0  0  0
   -2.9848   -0.5808   -0.4023 O   0  0  0  0  0  0  0  0  0  0  0  0
   -2.4673    0.2556   -0.5319 H   0  0  0  0  0  0  0  0  0  0  0  0
   -2.4855   -2.9514   -0.5865 O   0  0  0  0  0  0  0  0  0  0  0  0
   -2.1683   -2.8275   -1.5368 H   0  0  0  0  0  0  0  0  0  0  0  0
   -1.2256    2.7043   -0.0337 S   0  0  0  0  0  0  0  0  0  0  0  0
   -2.2577    3.6919   -0.0526 O   0  0  0  0  0  0  0  0  0  0  0  0
   -1.3851    1.4902   -0.8695 O   0  0  0  0  0  0  0  0  0  0  0  0
    0.1304    3.3724   -0.4707 O   0  0  0  0  0  0  0  0  0  0  0  0
    0.7558    2.7130   -0.8592 H   0  0  0  0  0  0  0  0  0  0  0  0
   -1.0136    2.2518    1.4437 O   0  0  0  0  0  0  0  0  0  0  0  0
   -0.3031    1.5458    1.5442 H   0  0  0  0  0  0  0  0  0  0  0  0
    2.2557   -1.4807    1.6097 C   0  0  0  0  0  0  0  0  0  0  0  0
    3.6504   -0.8528    1.4737 C   0  0  0  0  0  0  0  0  0  0  0  0
    3.8113    0.2233    0.3813 C   0  0  0  0  0  0  0  0  0  0  0  0
    3.3270   -0.2966   -0.9489 C   0  0  0  0  0  0  0  0  0  0  0  0
    2.0511    0.3720   -1.5096 C   0  0  0  0  0  0  0  0  0  0  0  0
    1.1479   -0.5176    1.9350 C   0  0  0  0  0  0  0  0  0  0  0  0
    0.3252   -1.0556    2.8365 O   0  0  0  0  0  0  0  0  0  0  0  0
   -0.7913   -0.2248    3.1020 O   0  0  0  0  0  0  0  0  0  0  0  0
   -1.5102   -0.8027    2.7611 H   0  0  0  0  0  0  0  0  0  0  0  0
    1.9463   -1.9654    0.6742 H   0  0  0  0  0  0  0  0  0  0  0  0
    3.9530   -0.4141    2.4291 H   0  0  0  0  0  0  0  0  0  0  0  0
    2.2751   -2.2654    2.3688 H   0  0  0  0  0  0  0  0  0  0  0  0
    4.3467   -1.6689    1.2607 H   0  0  0  0  0  0  0  0  0  0  0  0
    3.2795    1.1368    0.6458 H   0  0  0  0  0  0  0  0  0  0  0  0
    4.8758    0.4518    0.2722 H   0  0  0  0  0  0  0  0  0  0  0  0
    1.0093    0.5864    1.4388 O   0  0  0  0  0  0  0  0  0  0  0  0
    3.8590   -1.1777   -1.5777 O   0  0  0  0  0  0  0  0  0  0  0  0
    1.8416    1.5611   -1.4442 O   0  0  0  0  0  0  0  0  0  0  0  0
    1.2478   -0.5411   -2.0423 O   0  0  0  0  0  0  0  0  0  0  0  0
    0.0904    0.0149   -2.6391 O   0  0  0  0  0  0  0  0  0  0  0  0
   -0.3423    0.5255   -1.9110 H   0  0  0  0  0  0  0  0  0  0  0  0
  1  3  1  0  0  0  0
  2  1  1  0  0  0  0
  4  6  2  0  0  0  0
  5  4  2  0  0  0  0
  7  4  1  0  0  0  0
  8  7  1  0  0  0  0
  9  4  1  0  0  0  0
 10  9  1  0  0  0  0
 11 16  1  0  0  0  0
 12 11  2  0  0  0  0
 13 11  2  0  0  0  0
 14 11  1  0  0  0  0
 15 14  1  0  0  0  0
 16 17  1  0  0  0  0
 18 23  1  0  0  0  0
 18 29  1  0  0  0  0
 19 18  1  0  0  0  0
 19 28  1  0  0  0  0
 20 31  1  0  0  0  0
 20 19  1  0  0  0  0
 21 20  1  0  0  0  0
 22 35  2  0  0  0  0
 22 21  1  0  0  0  0
 23 24  1  0  0  0  0
 24 25  1  0  0  0  0
 26 25  1  0  0  0  0
 27 18  1  0  0  0  0
 30 19  1  0  0  0  0
 32 20  1  0  0  0  0
 33 23  2  0  0  0  0
 34 21  2  0  0  0  0
 36 22  1  0  0  0  0
 37 36  1  0  0  0  0
 37 38  1  0  0  0  0
M  END
$$$$
