2sa_1hom_1a.log
 OpenBabel02281910223D
Gaussian opt/gaussian/g09/g09 # opt freq wb97xd/6-31++g(d,p) geom=connectivity
 39 35  0  0  0  0  0  0  0  0999 V2000
    3.7598    1.1889   -2.0060 N   0  0  0  0  0  0  0  0  0  0  0  0
    3.7572    0.2137   -1.5831 H   0  0  0  0  0  0  0  0  0  0  0  0
    4.4199    1.7570   -1.4769 H   0  0  0  0  0  0  0  0  0  0  0  0
    4.0109    1.1558   -2.9904 H   0  0  0  0  0  0  0  0  0  0  0  0
    2.4548   -1.4467   -0.1439 S   0  0  0  0  0  0  0  0  0  0  0  0
    2.4809   -1.4786    1.3182 O   0  0  0  0  0  0  0  0  0  0  0  0
    1.4334   -0.4735   -0.6681 O   0  0  0  0  0  0  0  0  0  0  0  0
    3.7497   -1.2021   -0.8022 O   0  0  0  0  0  0  0  0  0  0  0  0
    2.8257    1.6190   -1.8707 H   0  0  0  0  0  0  0  0  0  0  0  0
    2.0233   -2.8832   -0.6690 O   0  0  0  0  0  0  0  0  0  0  0  0
    1.1176   -3.0965   -0.3519 H   0  0  0  0  0  0  0  0  0  0  0  0
   -1.6299   -2.0022   -0.0737 S   0  0  0  0  0  0  0  0  0  0  0  0
   -1.7216   -1.4919    1.4157 O   0  0  0  0  0  0  0  0  0  0  0  0
   -2.9622   -2.2276   -0.6025 O   0  0  0  0  0  0  0  0  0  0  0  0
   -1.0543   -0.7780   -0.8671 O   0  0  0  0  0  0  0  0  0  0  0  0
   -0.0361   -0.7008   -0.7640 H   0  0  0  0  0  0  0  0  0  0  0  0
   -0.6775   -3.0930   -0.0582 O   0  0  0  0  0  0  0  0  0  0  0  0
   -2.9956    2.6349   -0.4040 C   0  0  0  0  0  0  0  0  0  0  0  0
   -1.5354    2.5775   -0.8873 C   0  0  0  0  0  0  0  0  0  0  0  0
   -0.5341    2.3405    0.2380 C   0  0  0  0  0  0  0  0  0  0  0  0
    0.8830    2.2607   -0.2317 C   0  0  0  0  0  0  0  0  0  0  0  0
    1.9912    1.8702    0.7813 C   0  0  0  0  0  0  0  0  0  0  0  0
   -3.4601    1.3200    0.1676 C   0  0  0  0  0  0  0  0  0  0  0  0
   -4.3977    0.7689   -0.6153 O   0  0  0  0  0  0  0  0  0  0  0  0
   -4.9557   -0.4095   -0.0622 O   0  0  0  0  0  0  0  0  0  0  0  0
   -4.3277   -1.1041   -0.3636 H   0  0  0  0  0  0  0  0  0  0  0  0
   -3.1044    3.3802    0.3913 H   0  0  0  0  0  0  0  0  0  0  0  0
   -1.4299    1.7911   -1.6405 H   0  0  0  0  0  0  0  0  0  0  0  0
   -3.6483    2.9216   -1.2308 H   0  0  0  0  0  0  0  0  0  0  0  0
   -1.3117    3.5234   -1.3888 H   0  0  0  0  0  0  0  0  0  0  0  0
   -0.5864    3.1260    1.0054 H   0  0  0  0  0  0  0  0  0  0  0  0
   -0.7476    1.4142    0.7816 H   0  0  0  0  0  0  0  0  0  0  0  0
   -3.0250    0.8178    1.1850 O   0  0  0  0  0  0  0  0  0  0  0  0
    1.2419    2.4626   -1.3748 O   0  0  0  0  0  0  0  0  0  0  0  0
    3.1619    2.0142    0.5438 O   0  0  0  0  0  0  0  0  0  0  0  0
    1.4449    1.3383    1.8735 O   0  0  0  0  0  0  0  0  0  0  0  0
    2.4143    0.8379    2.7768 O   0  0  0  0  0  0  0  0  0  0  0  0
    2.5346   -0.0704    2.4054 H   0  0  0  0  0  0  0  0  0  0  0  0
   -2.3346   -0.7133    1.4683 H   0  0  0  0  0  0  0  0  0  0  0  0
  1  9  1  0  0  0  0
  1  2  1  0  0  0  0
  1  3  1  0  0  0  0
  4  1  1  0  0  0  0
  5  6  1  0  0  0  0
  7  5  2  0  0  0  0
  8  5  2  0  0  0  0
 10 11  1  0  0  0  0
 10  5  1  0  0  0  0
 12 17  2  0  0  0  0
 12 13  1  0  0  0  0
 13 39  1  0  0  0  0
 14 12  2  0  0  0  0
 15 16  1  0  0  0  0
 15 12  1  0  0  0  0
 18 23  1  0  0  0  0
 18 27  1  0  0  0  0
 19 18  1  0  0  0  0
 19 20  1  0  0  0  0
 20 32  1  0  0  0  0
 20 31  1  0  0  0  0
 21 20  1  0  0  0  0
 21 22  1  0  0  0  0
 22 36  1  0  0  0  0
 23 33  2  0  0  0  0
 24 25  1  0  0  0  0
 24 23  1  0  0  0  0
 26 25  1  0  0  0  0
 28 19  1  0  0  0  0
 29 18  1  0  0  0  0
 30 19  1  0  0  0  0
 34 21  2  0  0  0  0
 35 22  2  0  0  0  0
 36 37  1  0  0  0  0
 38 37  1  0  0  0  0
M  RAD  1   6   2
M  END
$$$$
