23
1sa1msa1ma-01
S        2.21083100      -0.25450900       0.00011600
O        1.72286300      -1.48691400       0.84540600
O        1.65583500       0.96571400       0.60179900
O        3.63006600      -0.35538000      -0.16192700
O        1.53552400      -0.45341200      -1.40978800
H        0.53712800      -0.34533700      -1.34871500
S       -1.77300300      -0.64874900       0.05732300
O       -0.90372300      -1.48580100       0.91756000
O       -1.03518500      -0.10997500      -1.12904200
O       -2.45636500       0.44688500       0.79310300
H        0.72383600      -1.49088400       0.93678900
C       -3.04904000      -1.71576800      -0.56741800
H       -2.56945800      -2.52147100      -1.12320100
H       -3.60169100      -2.10972600       0.28541700
H       -3.69833100      -1.12628700      -1.21434800
N       -0.62424400       2.44010500       0.69276500
H       -0.57795200       3.10785200       1.45928200
H        0.24936800       1.86850500       0.69691400
C       -0.78498500       3.10156800      -0.62520900
H       -0.86903200       2.31317800      -1.37270200
H       -1.69152000       3.70622500      -0.61861200
H        0.08698600       3.72275900      -0.82747300
H       -1.41285300       1.76283900       0.85714100
23
1sa1msa1ma-02
S       -2.18023900      -0.33017400      -0.00570600
O       -1.60417100       1.00348900      -0.22981400
O       -3.60364100      -0.45901400       0.08505900
O       -1.67307000      -1.28393300      -1.14658000
O       -1.54135800      -0.91760500       1.31083100
H       -0.67075100      -1.29108500      -1.19466000
H       -0.54642300      -0.77199500       1.31848100
S        1.78461800      -0.67152900      -0.06935400
O        0.95288400      -1.35183300      -1.08902800
O        1.02270600      -0.41160700       1.19516600
O        2.42424000       0.58043500      -0.55279100
H        1.42050300       1.83069200      -0.03616200
C        3.10026100      -1.79457000       0.33714300
H        2.65245000      -2.71126100       0.72074500
H        3.66361600      -1.99121100      -0.57502400
H        3.73070500      -1.32295300       1.09059200
N        0.64071800       2.40924800       0.36775800
H       -0.22519000       1.84349700       0.22305100
C        0.52093000       3.73920000      -0.26841000
H       -0.31924100       4.27768900       0.16877200
H        1.44539400       4.29744900      -0.12339100
H        0.34361000       3.59123400      -1.33277500
H        0.80237000       2.46322800       1.37188900
23
1sa1msa1ma-03
S       -1.92894300      -0.73598500       0.03868600
O       -0.98450800      -0.14571700       1.06448100
O       -3.13798200      -1.28961800       0.59011600
O       -2.09638200       0.26460500      -1.04984200
O       -1.13353100      -1.97659300      -0.59909000
H       -1.16532500       1.53306600      -0.89555300
H       -0.29675900      -1.66169400      -0.99826100
S        2.01571400      -0.18218500      -0.04532400
O        1.99244600       1.28863800      -0.10945400
O        1.39953800      -0.86425200      -1.18714300
O        1.39931100      -0.68460500       1.29013100
H        0.34536000      -0.53108200       1.26265800
C        3.69491100      -0.71281700       0.13400700
H        4.22276400      -0.40776400      -0.76977800
H        4.11510800      -0.22871900       1.01501600
H        3.69608000      -1.79728500       0.23971400
N       -0.55411900       2.37627500      -0.65929900
H        0.41007800       2.02279700      -0.51195600
C       -1.06580400       3.02513800       0.57278900
H       -0.41400300       3.85267200       0.85245800
H       -2.07914400       3.38225500       0.39173600
H       -1.08140800       2.26662200       1.35448000
H       -0.54803700       3.01234700      -1.45358700
