35
1sa1msa1fa2ma-1
S        1.00478400       1.58102400      -0.19188200
O        0.37462400       1.17221100       1.11638100
O        2.45244200       1.78138100      -0.06538400
O        0.90864300       0.27065600      -1.11761000
O        0.23270500       2.65192600      -0.81905900
H       -1.99065500       2.03191700      -0.42740500
S       -2.35110200      -1.27606700      -0.45736300
O       -3.23390200      -0.63262200       0.55069400
O       -1.39324600      -2.24736400       0.12008600
O       -1.68362300      -0.24950700      -1.31641000
H       -0.04840800       0.04947300      -1.28660400
C       -3.41095200      -2.21501000      -1.53724500
H       -4.12444800      -1.52974300      -1.99483000
H       -2.78698100      -2.68821000      -2.29539000
H       -3.92503200      -2.96418100      -0.93505400
H        5.18819700      -1.60202500      -1.09543200
H        3.57147500       0.71136900      -0.62794800
C        4.33620000      -1.06820200      -0.65515900
O        4.33410900       0.18718200      -1.00587100
O        3.53277400      -1.63396100       0.06941400
N        1.01489800      -1.51522800       1.27539100
H        0.20116600      -1.87980100       0.74206400
H        1.87135900      -1.55056500       0.69485400
C        1.19758800      -2.23995100       2.54749800
H        2.02836100      -1.79654900       3.09586700
H        0.28120200      -2.16839500       3.13318700
H        1.41554900      -3.28670700       2.33762800
H        0.80876800      -0.50644800       1.42053900
N       -2.21223400       1.92923500       0.56699500
H       -2.81102700       1.08218400       0.65820000
C       -2.77778200       3.16452400       1.14148700
H       -2.95227800       3.01301500       2.20626800
H       -2.06427800       3.97502000       0.99487200
H       -3.71925500       3.40042000       0.64593900
H       -1.28780400       1.68448900       0.98704000
35
1sa1msa1fa2ma-2
S        0.96373300      -1.51131200      -0.18922400
O        0.35650300      -1.06597700       1.09615300
O        0.90156600      -0.24012300      -1.16468600
O        2.40242000      -1.78490500      -0.10004400
O        0.15385100      -2.58710200      -0.79627100
H       -1.43429100      -2.38292000      -0.24491800
S       -2.34355700       1.21751600      -0.47089300
O       -1.47670600       2.24798900       0.14537500
O       -3.04430000       0.35638600       0.52265700
O       -1.63948300       0.38951600      -1.49181300
H       -0.04905700       0.00061500      -1.35472900
C       -3.61521200       2.10565500      -1.34686400
H       -4.16976400       2.70318800      -0.62322100
H       -3.13266100       2.74428900      -2.08674600
H       -4.26811100       1.37944900      -1.83090400
H        5.18068800       1.57933700      -1.09733300
H        3.53973300      -0.71884000      -0.63687900
C        4.31891400       1.05550600      -0.66370000
O        4.31221200      -0.20241800      -1.00594100
O        3.51138000       1.63225000       0.04701700
N        0.97865000       1.60026500       1.24517100
H        1.82605400       1.63394700       0.65373400
H        0.15397900       1.96347600       0.72902700
C        1.18349800       2.31336800       2.51998200
H        0.27869600       2.23184400       3.12211900
H        2.02554900       1.86621800       3.04780600
H        1.39498400       3.36307000       2.31790600
H        0.77270600       0.58868100       1.38633100
N       -2.34475200      -2.27488300       0.26712500
H       -2.56238700      -1.24982500       0.34572900
C       -2.23215200      -2.88524600       1.61226200
H       -3.15680800      -2.71836200       2.16455700
H       -2.03615700      -3.95241500       1.50958300
H       -1.39328500      -2.40351800       2.11292900
H       -3.07981300      -2.70582400      -0.28886000
35
1sa1msa1fa2ma-3
S        0.93793100       1.56945000       0.20042800
O        0.45426600       0.83350000       1.39896200
O        2.36768000       1.89552100       0.23478400
O        0.83787700       0.53646400      -1.02514300
O        0.03897700       2.70446500      -0.09864700
H       -1.42155600       2.26437800       0.58861600
S       -2.22843100      -1.23544400      -0.42555900
O       -2.83602400      -0.71532400       0.82926500
O       -1.21564300      -2.29213900      -0.20548400
O       -1.72996100      -0.11588000      -1.27927800
H       -0.11599800       0.30517300      -1.19872300
C       -3.54642100      -2.01045900      -1.34037300
H       -3.94817700      -2.81907400      -0.72967600
H       -4.31222900      -1.26156000      -1.54251400
H       -3.12977800      -2.39860100      -2.26980000
H        5.27286200      -1.00882400      -1.52992700
H        3.51753600       1.03761700      -0.57087800
C        4.40837300      -0.63696300      -0.96478100
O        4.29293100       0.65661700      -1.07478900
O        3.69041200      -1.39111600      -0.32757800
N        1.23084300      -1.75717700       0.96157200
H        0.41576300      -2.01672300       0.37318000
H        2.07157800      -1.61744400       0.37561100
C        1.46082100      -2.75649400       2.02180500
H        2.27560900      -2.42158900       2.66338000
H        0.54744200      -2.86802000       2.60578800
H        1.72218700      -3.71118200       1.56608500
H        0.98590600      -0.81875500       1.34103300
N       -2.36776800       1.99044200       0.95716000
H       -2.41159600       0.94601200       1.02068900
C       -3.42307500       2.47120000       0.03858900
H       -4.40209700       2.19539300       0.43008800
H       -3.34604500       3.55276600      -0.07081500
H       -3.25686900       1.98763700      -0.92374200
H       -2.46035700       2.37526300       1.89441100
