52
3sa1am2ma1tma-12
S       -4.05408700      -0.35327400      -0.48507000
O       -3.61856300      -1.63204900       0.10340300
O       -4.58857100       0.59670600       0.51180900
O       -3.08511200       0.26119400      -1.40882100
O       -5.28979700      -0.72357600      -1.47011400
H       -5.94504900      -1.21712100      -0.95825900
S        2.03372400      -2.29828900      -0.35141300
O        2.52476300      -1.14606700      -1.13932700
O        0.59024900      -2.56408000      -0.69579400
O        2.86322700      -3.48574800      -0.35280300
O        1.98954400      -1.80485400       1.18497500
H        1.86331500      -0.81190200       1.25258000
S        0.64531900       1.53071600       0.76168500
O        1.72706700       0.78629200       1.49358200
O        1.04527800       1.61473400      -0.69622500
O       -0.63837400       0.69691000       0.82578700
O        0.38495000       2.86397700       1.32739200
N       -0.38757000      -0.33233800      -1.98983000
H       -0.05271100      -1.23095100      -1.57318200
H       -1.38418500      -0.17473300      -1.75608600
H        0.19197600       0.43881900      -1.57261400
H       -0.26580000      -0.36488200      -2.99738200
C       -2.44117800       3.31835800      -0.40168200
N       -2.59823200       2.49911300       0.82252300
H       -3.49902100       1.98580700       0.82743900
H       -1.84049500       1.75575700       0.84762500
H       -3.18737700       4.11327900      -0.41194300
H       -1.43277600       3.73202300      -0.40607600
H       -2.58862400       2.65717700      -1.25492500
H       -2.48551300       3.05817500       1.66509500
C       -0.91837700      -2.52712900       2.68222500
N       -1.11427800      -1.93100900       1.34685900
H       -0.84463800      -0.92301000       1.31726900
H       -0.50844100      -2.38089000       0.62903600
H       -1.51377200      -1.98054600       3.41366600
H       -1.22901300      -3.57167100       2.66091200
H        0.14002500      -2.46389800       2.93357200
H       -2.09203600      -1.96577200       1.01414500
N        3.87126400       1.23600500      -0.46957600
C        4.29791300       1.14791200      -1.88694800
C        3.85230000       2.63774700       0.02039600
C        4.68543200       0.36103500       0.41179100
H        3.48866700       2.63687100       1.04747500
H        4.86448100       3.04407100      -0.03661400
H        3.16283800       3.21052500      -0.59827900
H        4.21344100       0.10799400      -2.19976500
H        3.62992800       1.76931700      -2.48394100
H        5.32625700       1.50566800      -1.97295800
H        4.64304500      -0.65473100       0.02237900
H        5.71200200       0.73435100       0.42288400
H        4.25070800       0.39150400       1.41023400
H        2.89134700       0.89486900      -0.44094900
52
3sa1am2ma1tma-11
S       -4.07416800      -0.35892400      -0.49389800
O       -4.64925100       0.66382100       0.40742100
O       -3.11860200       0.23999700      -1.45477300
O       -3.58333800      -1.57219400       0.16101400
O       -5.32239900      -0.91001300      -1.37109300
H       -5.83836800      -0.14972500      -1.67051700
S        2.04044000      -2.29016000      -0.36281700
O        2.51221600      -1.13108500      -1.15284600
O        0.59359800      -2.56277700      -0.68588700
O        2.87748900      -3.47203000      -0.38290200
O        2.01730200      -1.80376200       1.17637200
H        1.88589500      -0.81215000       1.24905200
S        0.64858600       1.52763100       0.77906100
O       -0.62911300       0.68506000       0.85778200
O        1.74476600       0.78603100       1.49187100
O        1.02580100       1.62172900      -0.68391200
O        0.38834900       2.85651700       1.35532800
N       -0.40550700      -0.33448700      -1.97042200
H       -1.40613000      -0.18047900      -1.74862400
H       -0.06971000      -1.23089700      -1.54996300
H       -0.27265500      -0.37017700      -2.97649500
H        0.16884900       0.43943000      -1.55194200
C       -2.41188500       3.29145300      -0.36712500
N       -2.59835000       2.47157500       0.85276000
H       -1.83843800       1.72990700       0.89205000
H       -2.50789200       3.03056800       1.69793700
H       -2.53711900       2.62919200      -1.22326900
H       -3.15918100       4.08500700      -0.39595500
H       -1.40414100       3.70617400      -0.34740600
H       -3.50161800       1.96130600       0.82938600
C       -0.87836800      -2.55974300       2.70953200
N       -1.08157100      -1.94515600       1.38372800
H       -0.48550400      -2.38991700       0.65456300
H       -2.06084300      -1.96763400       1.05874000
H        0.18233800      -2.50530900       2.95315200
H       -1.46494400      -2.01995400       3.45299300
H       -1.19508200      -3.60209900       2.67691000
H       -0.80869600      -0.93836700       1.36228700
N        3.86253300       1.24580900      -0.49265300
C        3.84148400       2.64559400       0.00276400
C        4.69422200       0.37280700       0.37427900
C        4.27033100       1.16567800      -1.91598200
H        4.65373700      -0.64170800      -0.01861400
H        5.71828800       0.75302100       0.37354300
H        4.27253500       0.39619400       1.37850600
H        3.13989900       3.21616300      -0.60420100
H        3.49211600       2.63867600       1.03472800
H        4.85023600       3.05839100      -0.06687700
H        3.59064100       1.78546100      -2.50132600
H        5.29531100       1.52978000      -2.01457600
H        4.18762200       0.12653800      -2.23180100
H        2.88615000       0.89659800      -0.45151800
52
3sa1am2ma1tma-7
S       -4.00644800      -0.51211100      -0.64863900
O       -3.05765500       0.04801500      -1.63817600
O       -3.49536800      -1.72771300       0.01161600
O       -4.54912700       0.51620500       0.25122500
O       -5.31059700      -1.00186700      -1.48006000
H       -5.13596000      -1.89419800      -1.80781900
S        2.04229600      -2.32988000      -0.01671800
O        2.55629200      -1.32409900      -0.97220800
O        0.59762700      -2.62971100      -0.32970400
O        2.85460600      -3.51273600       0.18014600
O        1.98985400      -1.60021100       1.42193900
H        1.84429200      -0.61150700       1.33382500
S        0.64061900       1.64228600       0.46738900
O       -0.67180800       0.87266300       0.64530700
O        1.07102700       1.45755300      -0.97367800
O        0.42615800       3.06201600       0.78370500
O        1.68231600       1.00194900       1.34211900
N       -0.33756500      -0.63775300      -1.99229700
H        0.23418900       0.18549600      -1.66941600
H       -1.34293100      -0.43785300      -1.83920100
H       -0.16277600      -0.82406400      -2.97498900
H       -0.03257700      -1.46258000      -1.42733000
C       -0.97964500      -2.02117400       2.96588800
N       -1.13642300      -1.66302700       1.54329200
H       -2.09446700      -1.79171700       1.18007500
H       -0.89142800      -0.66562500       1.35494200
H       -1.26109700      -3.06434100       3.10906000
H        0.06559700      -1.88316000       3.24100400
H       -1.61794700      -1.38011300       3.57400100
H       -0.49497900      -2.21115000       0.93081900
C       -2.70695800       3.60891100       1.21008100
N       -2.68266000       2.55163600       0.17544700
H       -1.87748800       1.88057200       0.35182800
H       -3.53750800       1.96163700       0.17042900
H       -1.72447500       4.07952300       1.23976200
H       -3.49151300       4.33170000       0.98468300
H       -2.90909200       3.13645500       2.17086400
H       -2.54764800       2.93091300      -0.75914600
N        3.87913200       1.15760300      -0.64092900
C        4.65859800       0.43242400       0.39448800
C        4.35496500       0.84900100      -2.01095100
C        3.85140600       2.61903000      -0.37762200
H        3.71092200       1.36755500      -2.72167400
H        5.38684100       1.19126300      -2.11572900
H        4.27916700      -0.22728600      -2.15984700
H        4.19081400       0.62039000       1.36016400
H        4.62346800      -0.63203600       0.16903800
H        5.68625300       0.80271200       0.38062500
H        3.45264500       2.78020800       0.62344400
H        4.86737600       3.01088700      -0.46199100
H        3.18763000       3.08897900      -1.10199100
H        2.89503600       0.82775200      -0.59567900
