50
2sa1dma2tma-35
S       -0.24512800       2.31216800      -0.84660200
O       -1.53699100       1.82103100      -0.31006200
O       -0.29764200       3.51027900      -1.66155000
O        0.78623600       2.34913100       0.24259900
O        0.26381000       1.15343400      -1.85664300
H        0.27194100       0.27929400      -1.37744800
H        0.21178300       1.63404900       1.62922000
S        0.20017500      -1.89372900       0.53208500
O       -0.22500900      -3.27073100       0.26126000
O       -0.99370000      -1.08362600       1.06118600
O        1.33855900      -1.74483100       1.47147700
O        0.60386400      -1.21707700      -0.79601500
N       -0.27779800       1.11292300       2.40014700
H       -0.61930100       0.23933300       1.91252600
C        0.67164700       0.72945200       3.46147800
H        1.37384400       0.00855400       3.04134800
H        1.18570900       1.61869600       3.83224900
H        0.12525000       0.25148900       4.27694900
C       -1.42156400       1.92275200       2.85858000
H       -1.05354900       2.83177300       3.33875900
H       -2.01534500       2.18295600       1.98200000
H       -2.01285000       1.34320300       3.57073900
N        3.12731900      -0.49053000      -0.71165700
C        3.35574200       0.14877000      -2.02868100
C        3.36485000       0.45686000       0.40442900
C        3.89391500      -1.74641500      -0.54537300
H        3.14575700      -0.06844400       1.33357300
H        4.40758800       0.78490200       0.37747400
H        2.68365100       1.30361800       0.28922100
H        3.10686300      -0.56780000      -2.81248000
H        2.69639700       1.01365300      -2.11309900
H        4.40383700       0.44708800      -2.11040600
H        3.64991000      -2.41743000      -1.36984000
H        4.96382200      -1.52283400      -0.54399700
H        3.58481500      -2.20530000       0.39448700
H        2.09420900      -0.77389400      -0.68511700
N       -2.90605900      -1.04113300      -0.75860500
C       -2.35625600      -0.87133100      -2.12697700
C       -3.34109800      -2.43956300      -0.51609700
C       -3.97404000      -0.05560800      -0.47378600
H       -3.72389800      -2.51327600       0.50212700
H       -4.12020100      -2.70440300      -1.23505700
H       -2.47056500      -3.09210100      -0.60839900
H       -2.02150500       0.15922100      -2.23987500
H       -1.50427000      -1.54249800      -2.23986900
H       -3.13808900      -1.10755500      -2.85343100
H       -3.55607300       0.94273900      -0.60663200
H       -4.81183600      -0.22780600      -1.15439200
H       -4.30339000      -0.18697800       0.55811800
H       -2.11169600      -0.88447900      -0.06510900
50
2sa1dma2tma-48
S       -0.04444300       2.30369700      -0.77875300
O       -1.18043000       1.98979700       0.15694100
O        1.25150000       2.05575000      -0.10466700
O       -0.15576700       1.18369600      -1.93555800
O       -0.17733100       3.57082500      -1.47190300
H       -1.96329200      -0.78607800      -0.67265800
H       -0.15811300       0.28402500      -1.50343700
S        0.05785000      -1.94484700       0.34194900
O       -0.45139700      -1.18536500      -0.89649700
O        0.74457300      -3.16907700      -0.08680200
O        1.07911000      -1.01380600       1.02080300
O       -1.09834500      -2.13387300       1.25070900
H        0.49703000       0.20441400       1.90791500
H        2.25596800      -0.65457500       0.03672100
N       -0.04044900       0.96775400       2.40509000
H       -0.56853600       1.41156900       1.61297700
C       -0.96218800       0.33896800       3.37025900
H       -1.44320800      -0.50636200       2.87622500
H       -0.38964300      -0.03290300       4.22222200
H       -1.69429700       1.07378600       3.71215800
C        0.87350200       1.96644800       2.99008400
H        1.51826600       1.47855700       3.72417200
H        1.46203100       2.39359800       2.17816700
H        0.28976800       2.75006600       3.47769200
N        3.11535100      -0.64948500      -0.60048600
C        3.95272100       0.51947200      -0.24749900
C        3.79079300      -1.94276200      -0.33140500
C        2.63043700      -0.57190400      -2.00125200
H        3.06611000      -2.74358200      -0.49141900
H        4.65449400      -2.04412600      -0.99330300
H        4.11047500      -1.95876700       0.71104700
H        3.35376000       1.42008700      -0.39017400
H        4.24782200       0.43395500       0.79954700
H        4.84238100       0.52949200      -0.88258500
H        2.11267700       0.37707600      -2.13989100
H        3.48652900      -0.64682100      -2.67684200
H        1.93352600      -1.39408300      -2.16900200
N       -3.02427900      -0.66947800      -0.71703800
C       -3.50520300      -0.15199500       0.58433300
C       -3.31040400       0.27717900      -1.82163400
C       -3.53549300      -2.03353000      -0.98805800
H       -2.84410900      -0.09730700      -2.73313600
H       -4.39238500       0.35807700      -1.95385800
H       -2.87507400       1.24329500      -1.56649600
H       -3.21016500      -0.86349000       1.35493000
H       -3.03087700       0.81505300       0.75359800
H       -4.59292000      -0.04703900       0.54628900
H       -3.19252300      -2.68631500      -0.18435900
H       -4.62691600      -2.00996800      -1.03991400
H       -3.11795100      -2.37961100      -1.93386800
50
2sa1dma2tma-13
S       -0.33449800       2.11617000      -0.92625900
O        0.73531500       2.26842200       0.10974900
O       -1.58049100       1.59821300      -0.30259700
O       -0.49052600       3.26529000      -1.79890800
O        0.17364100       0.92856800      -1.89326900
H        0.10895200       0.03930000      -1.42453300
S        0.20587200      -1.79276300       0.58193800
O        0.02639800      -1.46210300      -0.89084400
O       -0.99828100      -1.20678200       1.30907900
O        0.32209700      -3.23448700       0.79266300
O        1.42777000      -1.03166400       1.07051300
C        0.76750900       0.87937400       3.44949600
N       -0.22787800       1.13267600       2.39267700
C       -1.37268300       1.95886900       2.81671600
H        0.22766500       1.58545200       1.56185800
H        0.27683300       0.40127800       4.29977100
H        1.52106600       0.20776400       3.03911200
H        1.21311400       1.82535400       3.76488800
H       -1.91817000       1.44166500       3.60907800
H       -1.01046000       2.92062200       3.18565800
H       -2.00855300       2.11569000       1.94541500
H       -0.57285100       0.21005500       2.00969400
N       -2.88990300      -0.99509400      -0.70649400
C       -3.02808200      -2.46712400      -0.56536200
C       -3.96897800      -0.26341300      -0.00294500
C       -2.77898000      -0.59069500      -2.12982500
H       -3.76904000       0.80322600      -0.09990000
H       -4.93077800      -0.52674900      -0.44896300
H       -3.94776000      -0.55369700       1.04806500
H       -2.16904500      -2.93716600      -1.04363700
H       -3.01743100      -2.71554700       0.49501600
H       -3.96198200      -2.78115500      -1.03702900
H       -1.91176600      -1.09385700      -2.55538100
H       -3.69442300      -0.88568700      -2.64841800
H       -2.63202100       0.48719100      -2.16915200
H       -2.00703800      -0.74675700      -0.21385300
N        3.25618200      -0.40164600      -0.63448000
C        2.92123900      -0.59162300      -2.06652900
C        3.64560600       0.99769300      -0.34028800
C        4.27162900      -1.37814300      -0.18241700
H        3.91169300       1.06856300       0.71551000
H        4.50232800       1.27467500      -0.96037300
H        2.78743400       1.64555300      -0.53163400
H        2.45136300      -1.56840700      -2.18505400
H        2.21401300       0.18148400      -2.36547300
H        3.83908700      -0.52574000      -2.65733700
H        3.90196000      -2.38405600      -0.38414700
H        5.21163800      -1.20360200      -0.71230600
H        4.41480400      -1.26449800       0.89228900
H        2.38763300      -0.62029800      -0.02612400
