44
3sa1am1ma1eda-80
S       -3.58611300      -0.11060100      -0.22520900
O       -3.73904100       0.16282800       1.21602400
O       -2.77637100       0.94078100      -0.88973300
O       -3.15508700      -1.46989600      -0.57460800
O       -5.06756000      -0.03232800      -0.86567700
H       -5.49004400       0.78043300      -0.55592200
S        1.42753500       2.70941300      -0.25397900
O        0.02292500       3.07559500      -0.01015800
O        2.16419700       2.38724600       0.98799900
O        1.62628100       1.70602500      -1.31576900
O        2.13304800       4.02524300      -0.88391500
H        1.93174900       4.78128900      -0.31561300
S        0.15661000      -2.30281200       0.14966100
O        0.33143400      -0.85289300       0.54932800
O        0.07805100      -2.38059500      -1.32537000
O        1.15621400      -3.15652900       0.77602300
O       -1.23522300      -2.75921100       0.75051300
H       -1.98554000      -2.33056000       0.25774400
N       -0.52919000       0.15848000      -2.26069600
H       -0.63650200       0.23136600      -3.26826600
H        0.25348000       0.75998300      -1.94107300
H       -1.41031300       0.46730300      -1.79082900
H       -0.33170700      -0.83124700      -1.98814800
C       -0.59082800       1.52848900       3.00131600
N       -1.15844400       1.16723900       1.68548100
H       -1.00574700       1.92866400       1.00336600
H       -0.67114500       0.33592100       1.29224000
H       -1.14367400       2.37270200       3.41271000
H       -0.66906300       0.67256900       3.67130900
H        0.45381200       1.80788300       2.85983600
H       -2.16676100       0.93226900       1.71614800
C        3.81636600      -2.05864700      -0.77133900
N        4.11175300      -2.71436200       0.50258200
C        3.80475300      -0.54049400      -0.57293800
N        3.02349900      -0.24125200       0.65297800
H        4.94802400      -3.28102300       0.46765500
H        3.32714800      -3.29234800       0.79001000
H        4.55674000      -2.29913100      -1.54049500
H        2.84123500      -2.38295800      -1.14889900
H        3.34531800      -0.00249200      -1.40240500
H        4.81574700      -0.15829400      -0.41023000
H        2.01456300      -0.49526300       0.54569900
H        3.01974000       0.76289600       0.89667500
H        3.40842800      -0.83290800       1.39900600
44
3sa1am1ma1eda-99
S       -0.16723500      -2.27155200      -0.28683400
O       -0.39529100      -0.85845500      -0.78690900
O       -0.04190400      -2.23744200       1.18467600
O       -1.15795000      -3.19582600      -0.82002300
O        1.22340700      -2.72425800      -0.89821300
H        1.96966800      -2.25416000      -0.43829000
S       -1.51102000       2.73483200      -0.23624000
O       -0.14137000       2.96090300      -0.73526700
O       -2.45798400       2.34904600      -1.30166700
O       -1.59233000       1.86875900       0.95290300
O       -2.01019100       4.16495900       0.33826800
H       -1.88370600       4.83185500      -0.35048600
S        3.60236900      -0.00422800      -0.07762300
O        3.61704500       0.19839000      -1.54196000
O        2.96774300       1.12891000       0.62920300
O        3.09729900      -1.31150800       0.36456800
O        5.15000500      -0.04186200       0.38302200
H        5.59320900       0.74004800       0.02609000
N        1.05505600       0.94048500      -2.22831300
H        0.53315400       0.13575700      -1.81520900
H        0.72721000       1.79054100      -1.72743700
H        2.07401700       0.77583300      -2.07072300
H        0.85425800       1.01989500      -3.22082800
C        0.77488000       0.58395800       3.36734100
N        0.61373700       0.39776500       1.91134200
H       -0.17594100       0.95505900       1.54004200
H        1.47624400       0.69331800       1.41144000
H       -0.13273500       0.25909200       3.87575400
H        1.62150800      -0.01148600       3.70786800
H        0.95722700       1.63780300       3.57579200
H        0.43319100      -0.59890700       1.67609200
C       -3.75744000      -0.51209300       0.60241100
N       -3.10652300      -0.29124100      -0.71281400
C       -3.70263100      -2.01011700       0.91643500
N       -4.09074200      -2.77180600      -0.27087100
H       -3.16234700       0.69170500      -1.03049100
H       -3.54135300      -0.94971300      -1.37019900
H       -3.23828800       0.10083100       1.33985800
H       -4.79045300      -0.16717200       0.51033700
H       -4.36279200      -2.20747600       1.76667100
H       -2.68776300      -2.27871600       1.22720600
H       -4.90362400      -3.35236200      -0.11663200
H       -3.31845700      -3.35283700      -0.58487900
H       -2.08545700      -0.51355100      -0.68216600
44
3sa1am1ma1eda-23
S        0.18002300      -1.79399300       0.89118200
O        0.22067900      -0.33576700       1.24089700
O       -0.93756500      -2.48845100       1.53967800
O        0.19525500      -1.98332500      -0.57479300
O        1.50168900      -2.41569300       1.49469900
H        2.27599600      -1.88796500       1.16175700
H       -1.12553900       0.61496500       1.31000200
S        3.69555000      -0.28231400      -0.73377300
O        3.39920700      -0.69062300       0.65965400
O        3.43643900      -1.30222300      -1.74081000
O        3.09298300       1.04295500      -1.05125900
O        5.27823200       0.06663000      -0.76376600
H        5.77204000      -0.75971500      -0.66925700
S       -1.84589900       1.94119900      -0.22727100
O       -3.06060000       2.72715400      -0.29512700
O       -1.82363500       0.77673800      -1.18597700
O       -0.56429200       2.67477500      -0.30790200
O       -1.88976500       1.24613800       1.23079300
N        0.66254200       0.12503700      -2.21470600
H        1.48235800       0.67318200      -1.90513000
H        0.65138300      -0.77032900      -1.67459900
H       -0.23593900       0.59301700      -1.98011100
H        0.74073700      -0.06745700      -3.20892500
C        2.25763700       2.70078600       2.27970600
N        1.69915300       1.96421200       1.13029600
H        1.39490200       1.00720300       1.37894600
H        0.86143300       2.41328200       0.71000100
H        3.11999300       2.15582400       2.66286700
H        2.56252600       3.69575600       1.95657500
H        1.49756300       2.78452300       3.05609400
H        2.38349400       1.82468600       0.36316800
C       -4.17110100      -0.94000600       0.67415900
N       -3.02221900      -1.48059100      -0.09827100
C       -5.14627900      -0.29990000      -0.30778200
N       -5.47597900      -1.27106700      -1.35395600
H       -2.35768900      -2.01545800       0.49388000
H       -2.50129900      -0.69090600      -0.54660100
H       -4.62923300      -1.77376700       1.21288300
H       -3.78422900      -0.21139800       1.38709500
H       -4.66500000       0.56969300      -0.76537200
H       -6.01574600       0.06930900       0.24931000
H       -5.72266900      -0.81341900      -2.22277900
H       -6.25548000      -1.86249300      -1.08736700
H       -3.39942500      -2.06171800      -0.85338800
