38
2msa2dma-04
S       -2.75296300      -0.00968100       0.08391100
O       -2.84565000       1.18992000       0.92995800
O       -2.91643000      -1.31054200       0.75080000
O       -1.46276200       0.01133300      -0.72315100
C       -4.04638900       0.11905500      -1.14138100
H       -5.00226800       0.09562300      -0.61721900
H       -3.92555900       1.06286500      -1.67331200
H       -3.96450500      -0.72442400      -1.82702700
S        2.82286600      -0.00675000      -0.16829500
O        2.51269700       1.23061000      -0.93901600
O        2.51696700      -1.25537000      -0.92159500
O        2.19931000       0.00257100       1.17555900
C        4.59157900      -0.00207300       0.06183300
H        5.06253000      -0.01025100      -0.92113200
H        4.86042600       0.90052000       0.61084900
H        4.86308400      -0.89392000       0.62690200
N        0.08458700       2.16871500      -0.04432000
C        0.11718400       2.42860100       1.41288200
C       -0.51559900       3.25819400      -0.83748400
H        1.04508100       1.93965000      -0.38973800
H       -0.90935700       2.47202700       1.77857400
H        0.66165800       1.60917900       1.88185200
H        0.63916800       3.37039000       1.59289900
H       -1.54718700       3.39829600      -0.51036000
H        0.05509900       4.17629600      -0.68848400
H       -0.49422100       2.97761900      -1.89081500
H       -0.48099800       1.30833300      -0.22768800
N        0.06840700      -2.16939400      -0.05174000
C       -0.52733900      -3.27772000      -0.82257700
C        0.07182900      -2.38813000       1.41294800
H        1.03613900      -1.95513100      -0.38477400
H       -1.56946100      -3.38816800      -0.51851500
H       -0.47246900      -3.03552400      -1.88414500
H        0.02600800      -4.19748500      -0.62557800
H       -0.96279400      -2.42765900       1.75601100
H        0.59390600      -3.32193900       1.63005900
H        0.60379500      -1.55417100       1.87065500
H       -0.48812300      -1.31021500      -0.26419500
38
2msa2dma-03
S        2.68349900       0.00777200      -0.22847800
O        2.72425500      -0.98866100      -1.30670300
O        1.74314300      -0.37950400       0.87501500
O        2.41688300       1.40384400      -0.67897500
C        4.30692700       0.05551900       0.51307900
H        4.54057800      -0.94153100       0.88691500
H        5.01897900       0.35302900      -0.25695600
H        4.29508900       0.78036800       1.32702700
S       -2.65875900      -0.01364600      -0.20365600
O       -2.22162300      -0.09139200       1.20601400
O       -2.23678600      -1.20348200      -0.99618100
O       -2.27016300       1.27186300      -0.85216900
C       -4.44240200      -0.03096300      -0.22199900
H       -4.77881600      -0.96032500       0.23778600
H       -4.79621700       0.82976700       0.34575000
H       -4.77326000       0.02867600      -1.25891200
N       -0.03347900      -2.33019900       0.15370900
C       -0.57958800      -2.89059300       1.40698300
C        0.63073500      -3.31473300      -0.72464200
H       -0.82441600      -1.87529800      -0.36202000
H        0.23984900      -3.27956900       2.01380100
H       -1.10357400      -2.08929400       1.92932200
H       -1.28028400      -3.69162300       1.16449600
H        1.42043900      -3.81895700      -0.16503600
H       -0.10759100      -4.04058200      -1.06970000
H        1.07856900      -2.78196000      -1.56277300
H        0.64611000      -1.57014300       0.39799100
N        0.01046400       2.40674200       0.06915700
C       -0.01971600       2.30903600       1.54421300
C       -0.04390800       3.78642100      -0.45037400
H        0.89210400       1.95319200      -0.27368100
H       -0.96262300       2.71578800       1.91180300
H        0.05920300       1.25679700       1.81217900
H        0.82605200       2.86471900       1.95340600
H       -0.96533200       4.26283500      -0.11196400
H        0.82274200       4.34272100      -0.08944100
H       -0.02862400       3.74977400      -1.53958400
H       -0.81166700       1.88032600      -0.31590400
38
2msa2dma-02
S        2.61470000       0.00126100      -0.08269700
O        2.31370300      -1.23936000      -0.85448200
O        1.99115700       0.00137100       1.25498100
O        2.31146600       1.24046100      -0.85581200
C        4.38491400       0.00298400       0.14128100
H        4.85462000       0.00245600      -0.84229200
H        4.65592700       0.90045900       0.69769900
H        4.65751900      -0.89293400       0.69943300
S       -2.61468400      -0.00159000      -0.08285500
O       -1.99040200       0.00209400       1.25447700
O       -2.31535400      -1.24467700      -0.85118500
O       -2.31046000       1.23508600      -0.85966900
C       -4.38474900       0.00252800       0.14215100
H       -4.65448900       0.90172000       0.69640000
H       -4.85504100      -0.00010500      -0.84114000
H       -4.65790000      -0.89166800       0.70279200
N       -0.00186400       2.46379000      -0.11627300
C       -0.00304100       3.75048800      -0.83714700
C       -0.00140300       2.58915600       1.35718000
H       -0.85105100       1.92094100      -0.40795500
H        0.89179600       4.31510200      -0.56987900
H       -0.00361200       3.55094700      -1.90870200
H       -0.89812300       4.31417600      -0.56874500
H        0.89532400       3.12792700       1.66761700
H       -0.89960200       3.12494700       1.66849900
H        0.00040300       1.58706500       1.78255300
H        0.84818100       1.92263600      -0.40813200
N        0.00144200      -2.46427000      -0.11657100
C        0.00141900      -2.58826000       1.35704200
C        0.00311000      -3.75169200      -0.83616000
H       -0.84910500      -1.92389500      -0.40833400
H        0.89998300      -3.12329000       1.66857600
H       -0.00078500      -1.58575700       1.78149300
H       -0.89500100      -3.12713100       1.66818900
H        0.89805900      -4.31503700      -0.56661800
H       -0.89189400      -4.31604300      -0.56891200
H        0.00444200      -3.55324600      -1.90792000
H        0.85067600      -1.92167500      -0.40845800
