6sa_6a_H_01.sdf 
 OpenBabel09072015113D
Besel et al., Gaussian 16, # opt freq 6-31++g(d,p) wb97xd
 67 55  0  0  0  0  0  0  0  0999 V2000
   -1.3730    0.4559   -2.0616 N   0  0  0  0  0  0  0  0  0  0  0  0
   -2.3247    0.0740   -2.1589 H   0  0  0  0  0  0  0  0  0  0  0  0
   -0.8849   -0.1122   -1.3604 H   0  0  0  0  0  0  0  0  0  0  0  0
   -0.8416    0.4186   -2.9360 H   0  0  0  0  0  0  0  0  0  0  0  0
   -1.3689    1.4406   -1.7347 H   0  0  0  0  0  0  0  0  0  0  0  0
   -4.4492    1.0596    0.3066 N   0  0  0  0  0  0  0  0  0  0  0  0
   -5.2652    1.0015    0.9101 H   0  0  0  0  0  0  0  0  0  0  0  0
   -3.6193    0.6321    0.7613 H   0  0  0  0  0  0  0  0  0  0  0  0
   -4.5993    0.5129   -0.5532 H   0  0  0  0  0  0  0  0  0  0  0  0
   -4.1950    2.0387    0.0765 H   0  0  0  0  0  0  0  0  0  0  0  0
    1.3923    2.9040    0.4982 N   0  0  0  0  0  0  0  0  0  0  0  0
    0.8482    2.2603    1.1072 H   0  0  0  0  0  0  0  0  0  0  0  0
    0.8732    2.9811   -0.3862 H   0  0  0  0  0  0  0  0  0  0  0  0
    1.4582    3.8187    0.9387 H   0  0  0  0  0  0  0  0  0  0  0  0
    2.3180    2.4737    0.3815 H   0  0  0  0  0  0  0  0  0  0  0  0
   -2.5691   -2.7985    2.3240 N   0  0  0  0  0  0  0  0  0  0  0  0
   -1.7295   -3.1155    1.8109 H   0  0  0  0  0  0  0  0  0  0  0  0
   -3.3201   -2.5451    1.6504 H   0  0  0  0  0  0  0  0  0  0  0  0
   -2.8913   -3.5167    2.9674 H   0  0  0  0  0  0  0  0  0  0  0  0
   -2.2654   -1.9410    2.8290 H   0  0  0  0  0  0  0  0  0  0  0  0
    1.8900   -1.1037    2.9017 N   0  0  0  0  0  0  0  0  0  0  0  0
    2.7885   -1.1908    2.3923 H   0  0  0  0  0  0  0  0  0  0  0  0
    1.3965   -0.2511    2.5654 H   0  0  0  0  0  0  0  0  0  0  0  0
    1.2808   -1.8975    2.6672 H   0  0  0  0  0  0  0  0  0  0  0  0
    2.0403   -1.0463    3.9061 H   0  0  0  0  0  0  0  0  0  0  0  0
    3.9213   -2.7443   -1.0126 N   0  0  0  0  0  0  0  0  0  0  0  0
    3.1144   -3.3833   -0.8997 H   0  0  0  0  0  0  0  0  0  0  0  0
    3.6244   -1.9964   -1.6639 H   0  0  0  0  0  0  0  0  0  0  0  0
    4.1322   -2.2953   -0.1037 H   0  0  0  0  0  0  0  0  0  0  0  0
    4.7366   -3.2319   -1.3756 H   0  0  0  0  0  0  0  0  0  0  0  0
    2.0945    0.4452   -2.5391 S   0  0  0  0  0  0  0  0  0  0  0  0
    2.6199   -0.9026   -2.7033 O   0  0  0  0  0  0  0  0  0  0  0  0
    1.1730    0.9721   -3.5148 O   0  0  0  0  0  0  0  0  0  0  0  0
    1.3770    0.5436   -1.1319 O   0  0  0  0  0  0  0  0  0  0  0  0
    3.2757    1.4681   -2.3930 O   0  0  0  0  0  0  0  0  0  0  0  0
    3.9543    1.0865   -1.7625 H   0  0  0  0  0  0  0  0  0  0  0  0
    1.5190   -0.2945   -0.5642 H   0  0  0  0  0  0  0  0  0  0  0  0
   -3.9875   -2.1238   -0.9265 S   0  0  0  0  0  0  0  0  0  0  0  0
   -3.8902   -0.8681   -1.7111 O   0  0  0  0  0  0  0  0  0  0  0  0
   -2.7851   -2.9744   -1.0414 O   0  0  0  0  0  0  0  0  0  0  0  0
   -4.4266   -1.8887    0.4582 O   0  0  0  0  0  0  0  0  0  0  0  0
   -5.1956   -2.9701   -1.5491 O   0  0  0  0  0  0  0  0  0  0  0  0
   -4.9703   -3.2631   -2.4446 H   0  0  0  0  0  0  0  0  0  0  0  0
    0.7058   -2.6815    0.0590 S   0  0  0  0  0  0  0  0  0  0  0  0
    0.0250   -2.9477    1.3450 O   0  0  0  0  0  0  0  0  0  0  0  0
    1.6731   -1.5541    0.2061 O   0  0  0  0  0  0  0  0  0  0  0  0
    1.3292   -3.8528   -0.5544 O   0  0  0  0  0  0  0  0  0  0  0  0
   -0.3657   -2.0680   -0.9486 O   0  0  0  0  0  0  0  0  0  0  0  0
   -1.2525   -2.5333   -0.9564 H   0  0  0  0  0  0  0  0  0  0  0  0
   -1.8531    3.7986   -0.2714 S   0  0  0  0  0  0  0  0  0  0  0  0
   -3.2705    3.4350   -0.4139 O   0  0  0  0  0  0  0  0  0  0  0  0
   -1.3788    3.7891    1.1330 O   0  0  0  0  0  0  0  0  0  0  0  0
   -0.9410    3.0634   -1.1705 O   0  0  0  0  0  0  0  0  0  0  0  0
   -1.6989    5.3093   -0.7877 O   0  0  0  0  0  0  0  0  0  0  0  0
   -2.3301    5.8801   -0.3250 H   0  0  0  0  0  0  0  0  0  0  0  0
   -1.2189    0.5352    2.1930 S   0  0  0  0  0  0  0  0  0  0  0  0
    0.2048    0.9157    1.9786 O   0  0  0  0  0  0  0  0  0  0  0  0
   -1.8894    0.1900    0.9155 O   0  0  0  0  0  0  0  0  0  0  0  0
   -1.3628   -0.4934    3.2323 O   0  0  0  0  0  0  0  0  0  0  0  0
   -1.9652    1.8067    2.7764 O   0  0  0  0  0  0  0  0  0  0  0  0
   -1.7834    2.6012    2.1989 H   0  0  0  0  0  0  0  0  0  0  0  0
    4.5122    0.2536    0.8212 S   0  0  0  0  0  0  0  0  0  0  0  0
    4.7778    0.2086   -0.6362 O   0  0  0  0  0  0  0  0  0  0  0  0
    3.4358    1.1557    1.2285 O   0  0  0  0  0  0  0  0  0  0  0  0
    4.3680   -1.1209    1.3692 O   0  0  0  0  0  0  0  0  0  0  0  0
    5.8120    0.8988    1.5081 O   0  0  0  0  0  0  0  0  0  0  0  0
    6.6086    0.4235    1.2302 H   0  0  0  0  0  0  0  0  0  0  0  0
  1  5  1  0  0  0  0
  1  3  1  0  0  0  0
  2  1  1  0  0  0  0
  4  1  1  0  0  0  0
  6  8  1  0  0  0  0
  6  7  1  0  0  0  0
  9  6  1  0  0  0  0
 10  6  1  0  0  0  0
 11 14  1  0  0  0  0
 11 12  1  0  0  0  0
 13 11  1  0  0  0  0
 15 11  1  0  0  0  0
 16 20  1  0  0  0  0
 16 19  1  0  0  0  0
 17 16  1  0  0  0  0
 18 16  1  0  0  0  0
 21 25  1  0  0  0  0
 22 21  1  0  0  0  0
 23 21  1  0  0  0  0
 24 21  1  0  0  0  0
 26 27  1  0  0  0  0
 26 29  1  0  0  0  0
 28 26  1  0  0  0  0
 30 26  1  0  0  0  0
 31 35  1  0  0  0  0
 31 34  1  0  0  0  0
 32 31  2  0  0  0  0
 33 31  2  0  0  0  0
 34 37  1  0  0  0  0
 35 36  1  0  0  0  0
 38 41  1  0  0  0  0
 39 38  2  0  0  0  0
 40 38  2  0  0  0  0
 42 38  1  0  0  0  0
 43 42  1  0  0  0  0
 44 46  2  0  0  0  0
 44 45  1  0  0  0  0
 47 44  2  0  0  0  0
 48 44  1  0  0  0  0
 49 48  1  0  0  0  0
 50 52  1  0  0  0  0
 51 50  2  0  0  0  0
 53 50  2  0  0  0  0
 54 55  1  0  0  0  0
 54 50  1  0  0  0  0
 56 60  1  0  0  0  0
 56 59  1  0  0  0  0
 57 56  2  0  0  0  0
 58 56  2  0  0  0  0
 61 60  1  0  0  0  0
 62 64  2  0  0  0  0
 62 65  1  0  0  0  0
 62 66  1  0  0  0  0
 63 62  2  0  0  0  0
 67 66  1  0  0  0  0
M  RAD  5  41   2  45   2  52   2  59   2  65   2
M  END
$$$$
6sa_6a_H_02.sdf 
 OpenBabel09072015113D
Besel et al., Gaussian 16, # opt freq 6-31++g(d,p) wb97xd
 67 55  0  0  0  0  0  0  0  0999 V2000
   -0.6802    1.0755    3.6328 N   0  0  0  0  0  0  0  0  0  0  0  0
   -1.5208    0.9645    3.0538 H   0  0  0  0  0  0  0  0  0  0  0  0
   -0.9234    1.5314    4.5094 H   0  0  0  0  0  0  0  0  0  0  0  0
   -0.2668    0.1364    3.8055 H   0  0  0  0  0  0  0  0  0  0  0  0
    0.0329    1.6382    3.1130 H   0  0  0  0  0  0  0  0  0  0  0  0
    0.6045    4.1460    0.2256 N   0  0  0  0  0  0  0  0  0  0  0  0
    0.9066    3.5418    1.0279 H   0  0  0  0  0  0  0  0  0  0  0  0
    1.2051    4.9632    0.1456 H   0  0  0  0  0  0  0  0  0  0  0  0
    0.6517    3.5693   -0.6369 H   0  0  0  0  0  0  0  0  0  0  0  0
   -0.3649    4.4220    0.4116 H   0  0  0  0  0  0  0  0  0  0  0  0
   -3.1766    0.8324   -3.0133 N   0  0  0  0  0  0  0  0  0  0  0  0
   -3.3358    1.4305   -2.1886 H   0  0  0  0  0  0  0  0  0  0  0  0
   -3.9388    0.9341   -3.6793 H   0  0  0  0  0  0  0  0  0  0  0  0
   -2.2718    1.1232   -3.4362 H   0  0  0  0  0  0  0  0  0  0  0  0
   -3.1188   -0.1477   -2.6721 H   0  0  0  0  0  0  0  0  0  0  0  0
    3.1068   -1.9865    2.5635 N   0  0  0  0  0  0  0  0  0  0  0  0
    2.2076   -2.1201    3.0537 H   0  0  0  0  0  0  0  0  0  0  0  0
    2.9852   -2.2247    1.5584 H   0  0  0  0  0  0  0  0  0  0  0  0
    3.3178   -0.9720    2.6440 H   0  0  0  0  0  0  0  0  0  0  0  0
    3.8397   -2.5549    2.9804 H   0  0  0  0  0  0  0  0  0  0  0  0
   -0.3940   -2.5362   -1.1104 N   0  0  0  0  0  0  0  0  0  0  0  0
   -0.3384   -3.3648   -0.5142 H   0  0  0  0  0  0  0  0  0  0  0  0
    0.3818   -2.5076   -1.7872 H   0  0  0  0  0  0  0  0  0  0  0  0
   -1.3154   -2.4541   -1.5581 H   0  0  0  0  0  0  0  0  0  0  0  0
   -0.2808   -1.7274   -0.4771 H   0  0  0  0  0  0  0  0  0  0  0  0
    3.7755    1.7322   -1.5983 N   0  0  0  0  0  0  0  0  0  0  0  0
    4.4874    2.1501   -2.1916 H   0  0  0  0  0  0  0  0  0  0  0  0
    2.8286    2.0023   -1.9168 H   0  0  0  0  0  0  0  0  0  0  0  0
    3.8596    0.6951   -1.6134 H   0  0  0  0  0  0  0  0  0  0  0  0
    3.8634    2.0490   -0.6132 H   0  0  0  0  0  0  0  0  0  0  0  0
   -2.3307    2.3703    0.5719 S   0  0  0  0  0  0  0  0  0  0  0  0
   -3.0780    2.4247   -0.6726 O   0  0  0  0  0  0  0  0  0  0  0  0
   -2.1186    3.5844    1.3309 O   0  0  0  0  0  0  0  0  0  0  0  0
   -0.8977    1.8011    0.3225 O   0  0  0  0  0  0  0  0  0  0  0  0
   -2.9844    1.3212    1.5475 O   0  0  0  0  0  0  0  0  0  0  0  0
   -3.4389    0.5804    1.0216 H   0  0  0  0  0  0  0  0  0  0  0  0
   -0.7759    1.1432   -0.4533 H   0  0  0  0  0  0  0  0  0  0  0  0
   -0.3377   -1.9008    2.2132 S   0  0  0  0  0  0  0  0  0  0  0  0
   -0.0555   -3.2371    1.7094 O   0  0  0  0  0  0  0  0  0  0  0  0
    0.4350   -1.5001    3.4151 O   0  0  0  0  0  0  0  0  0  0  0  0
   -0.2221   -0.8420    1.1533 O   0  0  0  0  0  0  0  0  0  0  0  0
   -1.8459   -1.8149    2.7190 O   0  0  0  0  0  0  0  0  0  0  0  0
   -2.4397   -2.1303    1.9896 H   0  0  0  0  0  0  0  0  0  0  0  0
    1.1568    0.0836    0.8691 H   0  0  0  0  0  0  0  0  0  0  0  0
    3.0751   -2.0865   -1.4385 S   0  0  0  0  0  0  0  0  0  0  0  0
    4.0757   -1.0119   -1.4809 O   0  0  0  0  0  0  0  0  0  0  0  0
    2.5220   -2.4154   -0.1236 O   0  0  0  0  0  0  0  0  0  0  0  0
    1.9966   -1.8901   -2.4548 O   0  0  0  0  0  0  0  0  0  0  0  0
    3.8315   -3.4398   -1.8575 O   0  0  0  0  0  0  0  0  0  0  0  0
    4.3145   -3.3037   -2.6859 H   0  0  0  0  0  0  0  0  0  0  0  0
    1.6013   -0.4321   -2.9988 H   0  0  0  0  0  0  0  0  0  0  0  0
   -3.7840   -1.7325   -0.4679 S   0  0  0  0  0  0  0  0  0  0  0  0
   -4.1587   -0.4031    0.0643 O   0  0  0  0  0  0  0  0  0  0  0  0
   -3.0436   -1.6540   -1.7450 O   0  0  0  0  0  0  0  0  0  0  0  0
   -3.1367   -2.6026    0.5248 O   0  0  0  0  0  0  0  0  0  0  0  0
   -5.1530   -2.4341   -0.9124 O   0  0  0  0  0  0  0  0  0  0  0  0
   -5.7184   -2.5807   -0.1394 H   0  0  0  0  0  0  0  0  0  0  0  0
    2.4749    1.6036    1.7517 S   0  0  0  0  0  0  0  0  0  0  0  0
    3.4272    2.4633    1.0371 O   0  0  0  0  0  0  0  0  0  0  0  0
    1.2958    2.3916    2.2322 O   0  0  0  0  0  0  0  0  0  0  0  0
    1.9340    0.6404    0.5890 O   0  0  0  0  0  0  0  0  0  0  0  0
    3.0294    0.7553    2.8107 O   0  0  0  0  0  0  0  0  0  0  0  0
    0.3171    1.3154   -2.6790 S   0  0  0  0  0  0  0  0  0  0  0  0
   -0.6281    1.7575   -3.7045 O   0  0  0  0  0  0  0  0  0  0  0  0
    1.0424    2.4331   -2.0181 O   0  0  0  0  0  0  0  0  0  0  0  0
   -0.3266    0.3965   -1.6837 O   0  0  0  0  0  0  0  0  0  0  0  0
    1.4490    0.4764   -3.3958 O   0  0  0  0  0  0  0  0  0  0  0  0
  1  4  1  0  0  0  0
  1  3  1  0  0  0  0
  2  1  1  0  0  0  0
  5  1  1  0  0  0  0
  6 10  1  0  0  0  0
  6  7  1  0  0  0  0
  8  6  1  0  0  0  0
  9  6  1  0  0  0  0
 11 15  1  0  0  0  0
 11 12  1  0  0  0  0
 13 11  1  0  0  0  0
 14 11  1  0  0  0  0
 16 19  1  0  0  0  0
 16 20  1  0  0  0  0
 16 17  1  0  0  0  0
 18 16  1  0  0  0  0
 21 22  1  0  0  0  0
 21 25  1  0  0  0  0
 23 21  1  0  0  0  0
 24 21  1  0  0  0  0
 26 30  1  0  0  0  0
 27 26  1  0  0  0  0
 28 26  1  0  0  0  0
 29 26  1  0  0  0  0
 31 33  2  0  0  0  0
 31 35  1  0  0  0  0
 32 31  2  0  0  0  0
 34 31  1  0  0  0  0
 36 35  1  0  0  0  0
 37 34  1  0  0  0  0
 38 42  1  0  0  0  0
 38 40  1  0  0  0  0
 39 38  2  0  0  0  0
 41 38  2  0  0  0  0
 43 42  1  0  0  0  0
 45 47  1  0  0  0  0
 46 45  2  0  0  0  0
 48 45  2  0  0  0  0
 49 45  1  0  0  0  0
 50 49  1  0  0  0  0
 52 53  2  0  0  0  0
 52 55  1  0  0  0  0
 54 52  2  0  0  0  0
 56 52  1  0  0  0  0
 56 57  1  0  0  0  0
 58 60  2  0  0  0  0
 58 62  1  0  0  0  0
 59 58  2  0  0  0  0
 61 44  1  0  0  0  0
 61 58  1  0  0  0  0
 63 65  2  0  0  0  0
 63 66  1  0  0  0  0
 64 63  2  0  0  0  0
 67 51  1  0  0  0  0
 67 63  1  0  0  0  0
M  RAD  5  40   2  47   2  55   2  62   2  66   2
M  END
$$$$
