20
2nta1dma-1
N       -1.49743700      -1.17681500      -0.01537100
C       -1.87783500      -1.59097700       1.35234900
C       -1.93073900      -2.09531800      -1.08731900
H       -1.85371400      -0.19655300      -0.18477000
H       -1.42185000      -2.55589100       1.57852600
H       -1.51599400      -0.82978300       2.04314300
H       -2.96419600      -1.66648500       1.41513600
H       -1.47480800      -3.07438600      -0.93394200
H       -3.01786400      -2.18285100      -1.06831000
H       -1.61157100      -1.68751200      -2.04622200
H       -0.47253800      -1.05629200      -0.04394800
N        2.37991000      -0.52094900      -0.06928000
O        1.36019400      -1.19074100      -0.26756700
O        3.50508100      -0.90085100      -0.25150800
O        2.24339000       0.72322400       0.38146100
H        1.23785300       0.93613100       0.50592600
N       -0.87193100       1.87836900      -0.05244500
O       -0.21249900       1.12587500       0.75870300
O       -0.42095900       2.94305900      -0.42186400
O       -1.99116500       1.44532700      -0.43623100
20
2nta1dma-2
N       -1.16155000      -1.55572300       0.18552500
C       -2.40930700      -1.76702400       0.95125800
C       -1.31214700      -1.73641400      -1.27739900
H       -0.81713600      -0.55402600       0.36151600
H       -2.78617000      -2.77677000       0.77926900
H       -2.20165800      -1.61738100       2.01079500
H       -3.13252800      -1.02273500       0.61795400
H       -1.66501800      -2.74723300      -1.48916200
H       -2.02853100      -0.99592500      -1.63335100
H       -0.34130200      -1.56945900      -1.74327900
H       -0.41270800      -2.15922100       0.52557800
N        2.53985600      -0.30253400       0.02488700
O        1.63965600      -1.14094600      -0.00367200
O        3.71328000      -0.51527000      -0.12901300
O        2.19844400       0.97199500       0.24501600
H        1.18346900       1.01152300       0.36475900
N       -1.16721000       1.71112800      -0.02693400
O       -2.26162200       1.23216800      -0.34977300
O       -0.82123600       2.85566700      -0.24423900
O       -0.33694200       0.90660600       0.59148400
20
2nta1dma-3
N       -1.25540900      -1.61536000       0.10184600
C       -0.72382600      -2.66959800       0.99125700
C       -1.03141300      -1.85804100      -1.34236000
H       -2.25281700      -1.46058700       0.26139800
H        0.35146500      -2.74314900       0.83056400
H       -0.91856700      -2.38853200       2.02623200
H       -1.20707100      -3.62166900       0.76498100
H        0.04294200      -1.90969800      -1.51663900
H       -1.51246200      -2.79242500      -1.63640200
H       -1.46097800      -1.02239600      -1.89491800
H       -0.84188500      -0.66272900       0.35219100
N        2.42148300       0.17469600      -0.05165000
O        1.66845200      -0.79605300      -0.00195100
O        3.60434200       0.14817900      -0.26983700
O        1.88974900       1.38575400       0.15308900
H        0.89132800       1.25918000       0.32762300
N       -1.57500000       1.53790700       0.08715100
O       -2.59684400       0.88209900      -0.17093500
O       -0.57443300       0.87966800       0.61363200
O       -1.45352000       2.72874600      -0.12022800
