62
4sa1am1ma1dma1tma-13
S        3.29170000       0.35500000      -1.39341800
O        3.92432200      -0.17509100      -0.16331700
O        2.63274900      -0.70450700      -2.18616700
O        4.50511200       0.92263100      -2.30520600
O        2.45722500       1.54071900      -1.18228200
H        5.13001400       0.20374000      -2.47101800
H        3.13382500       0.37199900       1.21647900
S       -2.89847300      -2.05706500      -0.72499400
O       -3.66067200      -0.80046600      -0.60724900
O       -1.99424100      -2.08471700      -1.89228200
O       -2.26024900      -2.47390300       0.53406800
O       -3.98591200      -3.22901800      -0.97724100
H       -4.46981700      -3.02753300      -1.79043400
S       -2.24011100       2.54217000      -0.82399700
O       -1.79501000       2.22612400      -2.19402300
O       -1.37910600       1.77521800       0.16227300
O       -2.35493100       3.94736200      -0.48241900
O       -3.70383200       1.92551900      -0.62504500
H       -3.68040700       0.95718300      -0.79853800
S        1.32744400      -0.30991500       2.16488600
O        2.49442600       0.75457000       1.87735000
O        0.41394200       0.43635700       3.04468400
O        0.69701300      -0.59332700       0.82965300
O        1.93275700      -1.51486500       2.72729600
N       -0.12390400       0.02400300      -1.85925900
H        0.05638700       0.11350000      -0.84878200
H       -0.77670100      -0.76573300      -1.99989900
H       -0.58912200       0.89450600      -2.17797400
H        0.78053400      -0.14717500      -2.31535900
C       -3.46324400       0.23573400       2.62496200
N       -2.14574300      -0.05877900       2.02576300
H       -1.35070800       0.05260700       2.67506800
H       -2.11675200      -1.01066300       1.62363300
H       -3.47801600       1.27234500       2.96052400
H       -4.22707600       0.08570400       1.86281900
H       -3.63850800      -0.43293500       3.46756500
H       -1.93729700       0.60312500       1.24746600
C        1.00551100       3.58472000       2.04145200
N        0.97773200       3.06068100       0.65778700
C        1.02265700       4.10821100      -0.39147500
H        1.74350400       2.39147000       0.50188600
H        0.15613100       4.25720400       2.16955600
H        0.93356300       2.74440100       2.73149800
H        1.93976000       4.12459600       2.20105900
H        0.13198600       4.73090200      -0.30014800
H        1.93071700       4.69906100      -0.26544000
H        1.03499500       3.61842900      -1.36388800
H        0.09759300       2.51272900       0.52259700
N        1.40705800      -3.14463200       0.05544700
C        2.87290000      -3.30363300       0.24451900
C        0.62915300      -3.97006500       1.01701400
C        1.00305000      -3.40512900      -1.35002600
H       -0.43195600      -3.76562500       0.86541800
H        0.85163900      -5.02368200       0.83356400
H        0.92712900      -3.68103600       2.02506600
H        3.38425200      -2.61206500      -0.42442800
H        3.11187000      -3.05090300       1.27695400
H        3.14222800      -4.33821800       0.01980100
H        1.58572600      -2.74816000      -1.99654100
H        1.21106200      -4.45149900      -1.58465000
H       -0.06374600      -3.20090800      -1.45819900
H        1.17332400      -2.14921100       0.27715400
62
4sa1am1ma1dma1tma-20
S        1.18730300       3.21661300      -0.26322000
O        1.97863200       3.00004100       0.96362200
O        0.87831600       4.58271100      -0.61446100
O        2.04210400       2.61946400      -1.48023500
O       -0.05085000       2.34072300      -0.23614000
H       -0.51708300       1.75081400       1.04657500
H        2.64149900       1.89823300      -1.16341100
S        3.60264600      -0.80119600      -0.60107200
O        3.65942800       0.67339500      -0.62536100
O        3.69006500      -1.31319000       0.78333800
O        2.52783100      -1.38938500      -1.40970800
O        4.93203400      -1.32876800      -1.36325100
H        5.70750100      -0.93684100      -0.93866000
S       -3.04885800      -1.21367100      -1.29976500
O       -1.73027000      -1.90944300      -1.31990600
O       -2.83066300       0.24961600      -1.52340000
O       -4.08671000      -1.80907200      -2.11125700
O       -3.58458000      -1.33397200       0.21979500
H       -2.85223200      -1.20986700       0.87674400
S       -0.54647700      -0.18729900       2.04955300
O        0.26678200      -0.19351200       3.27703100
O       -1.79241000      -0.97275500       2.17204000
O       -1.03018900       1.32398700       1.82546000
O        0.24302200      -0.53414900       0.84409800
N        2.72928100       0.80280000       2.41455800
H        3.14361400       0.02542700       1.86206600
H        2.46968000       1.58716000       1.77336100
H        1.86535300       0.45454800       2.88113200
H        3.39519600       1.14198700       3.10284600
C       -0.02267500       0.60206800      -3.31732200
N        0.15908900       0.09432700      -1.94208100
H        1.08626800      -0.33141700      -1.79407600
H        0.04653700       0.86048400      -1.25745700
H        0.15702500      -0.20614600      -4.02608200
H       -1.04795500       0.95782100      -3.41477600
H        0.68027000       1.41749200      -3.48616300
H       -0.54453900      -0.62975600      -1.70931400
C       -3.15395500       3.34524300       0.01553800
N       -3.41890300       1.95037300       0.44231500
C       -4.79529000       1.69576500       0.92075100
H       -3.21219500       1.29747000      -0.36282400
H       -3.33981300       4.02085900       0.85196600
H       -2.11190100       3.41670000      -0.30009900
H       -3.81769500       3.58814100      -0.81511100
H       -4.99414700       2.30886500       1.80105400
H       -5.49514500       1.94842100       0.12321400
H       -4.88546100       0.63612700       1.15941400
H       -2.73214400       1.68674900       1.16550300
N        0.10350700      -3.32679200       0.43681300
C        1.17734600      -3.40656800       1.46292500
C       -1.15810600      -3.95306300       0.91406000
C        0.54491900      -3.89473100      -0.86502200
H       -1.90741500      -3.85483900       0.13052100
H       -0.95999700      -5.00361100       1.13677600
H       -1.48964000      -3.42303200       1.80722400
H        2.04548600      -2.84585600       1.11406600
H        0.80823600      -2.96607100       2.38978900
H        1.42973600      -4.45750000       1.61952600
H        1.44104900      -3.36130600      -1.18400800
H        0.75447900      -4.95724900      -0.72527500
H       -0.25949900      -3.75043300      -1.58545600
H       -0.08347200      -2.31729900       0.29286800
62
4sa1am1ma1dma1tma-19
S        1.17151800       3.20866400      -0.23181200
O        1.95125500       2.98263300       1.00144600
O        0.88663500       4.57957100      -0.58821500
O        2.02711000       2.58754200      -1.44030100
O       -0.08107300       2.35082900      -0.21750300
H       -0.55119700       1.73654100       1.05722600
H        2.66762800       1.91109500      -1.10464100
S        3.63246700      -0.77120100      -0.60815600
O        2.61572700      -1.28198700      -1.54892900
O        3.72260200       0.70281900      -0.60074500
O        3.56799400      -1.35324100       0.74072700
O        5.05845000      -1.31069700      -1.15246600
H        5.21803700      -0.93018600      -2.02727800
S       -3.04272600      -1.20812700      -1.30982000
O       -1.72105000      -1.89727300      -1.32728300
O       -2.83245900       0.25538500      -1.53574900
O       -4.07730000      -1.81019600      -2.12069200
O       -3.57635700      -1.33020900       0.21055700
H       -2.83977200      -1.22575300       0.86645500
S       -0.54123300      -0.21096000       2.04598200
O        0.26019200      -0.20450700       3.28026700
O       -1.76532300      -1.03222000       2.15212000
O       -1.06469600       1.28897500       1.82475000
O        0.26414500      -0.53199900       0.84336700
N        2.73354400       0.76994100       2.41981800
H        1.87482900       0.44023900       2.90442200
H        3.43168400       1.08235700       3.08847000
H        3.10745800      -0.01175500       1.84987800
H        2.47585600       1.56743200       1.79371300
C       -0.04105900       0.64883000      -3.29312300
N        0.16580200       0.11052700      -1.93339500
H       -0.52752200      -0.62511000      -1.70680300
H        1.10335200      -0.30303600      -1.81159100
H       -1.07122100       0.99544400      -3.36766400
H        0.65148600       1.47527100      -3.45086500
H        0.13658800      -0.14062900      -4.02353400
H        0.05517500       0.85987600      -1.22932200
C       -3.18214900       3.33611900       0.03342200
N       -3.44957200       1.93520300       0.43858800
C       -4.82858300       1.67323400       0.90521400
H       -3.23632200       1.29380200      -0.37338300
H       -3.37062700       3.99943200       0.87901200
H       -2.13888200       3.41110400      -0.27761600
H       -3.84288800       3.59175800      -0.79582000
H       -5.03300900       2.27380800       1.79283000
H       -5.52399200       1.93698000       0.10743200
H       -4.91904500       0.61021900       1.12845800
H       -2.76706300       1.66066600       1.16156000
N        0.09368100      -3.32204900       0.43638200
C       -1.16687100      -4.00320600       0.83228000
C        0.60771000      -3.81363900      -0.86990600
C        1.12783900      -3.41714500       1.50137000
H        1.48162100      -3.21884400      -1.14138900
H        0.87461300      -4.86722100      -0.76343700
H       -0.18005100      -3.68705500      -1.61160200
H       -1.54291500      -3.52884100       1.73890100
H       -1.88958600      -3.88176600       0.02732400
H       -0.94937800      -5.05877600       1.00844400
H        0.71423500      -3.01252700       2.42594200
H        1.39199100      -4.46828400       1.63498600
H        1.99810600      -2.83205900       1.20035400
H       -0.11195700      -2.31210600       0.32435100
