37
2msa1ma1eda-01
S        2.92433800       0.28976200      -0.16802700
O        2.55198700       1.50009900      -0.94749000
O        3.04499400      -0.94263100      -0.96862400
O        1.99733500       0.10300200       0.99886200
C        4.53177100       0.62865700       0.52617100
H        5.22913100       0.77894200      -0.29834100
H        4.46043400       1.52744900       1.13866200
H        4.83083800      -0.22806700       1.13036100
S       -2.47087000      -1.04609700      -0.06219200
O       -3.12140700       0.03330400       0.69721200
O       -1.99804500      -2.18791300       0.76735500
O       -1.36786000      -0.54992000      -0.95160100
C       -3.70527300      -1.71716900      -1.16294100
H       -4.52212000      -2.10485500      -0.55371900
H       -4.05702900      -0.91488600      -1.81185200
H       -3.24970600      -2.51515800      -1.74928100
N        0.70453600      -2.20780800       0.29071800
H        0.67395300      -2.00136100      -0.70908100
H        1.12136800      -1.34600600       0.71386400
C        1.54237300      -3.38908400       0.57517000
H        1.59562200      -3.53076600       1.65435200
H        1.09838700      -4.27097400       0.11313300
H        2.53742300      -3.20711700       0.16976700
H       -0.28804800      -2.30446800       0.60074300
H       -0.26894000       3.89894500      -0.38862800
H       -0.97878200       3.03025600      -1.76892700
H       -2.69848400       3.98371800      -0.10901100
H       -2.85251900       2.24950800      -0.41755100
H       -2.32066100       3.43748200       2.06809600
H       -2.48919400       1.83413700       1.68749000
H        0.88353900       1.80786200      -0.62167500
H       -0.09471300       1.78633100       0.73883100
C       -0.86244400       3.02956900      -0.68309600
C       -2.21416600       3.01269700       0.03812600
N       -0.10548800       1.82331700      -0.28753900
N       -2.01267500       2.69986600       1.44992700
H       -0.58018700       0.94722700      -0.60178100
37
2msa1ma1eda-02
S        2.84538700       0.18743700       0.22659000
O        2.89330000      -1.07084200       0.99425600
O        2.44160800       1.37668000       1.02503800
O        2.00553400       0.05293400      -1.00801800
C        4.50431300       0.53050200      -0.33211400
H        5.13789300       0.63951000       0.54834300
H        4.83872900      -0.30661600      -0.94517400
H        4.48929300       1.45294300      -0.91260600
S       -2.52976500      -1.04286900       0.04769300
O       -2.10910900      -2.12615300      -0.88325600
O       -3.16787100       0.11225300      -0.59665900
O       -1.38354700      -0.64852500       0.93792000
C       -3.74488400      -1.77298800       1.13310000
H       -4.58929900      -2.09342000       0.52224100
H       -3.29183900      -2.62490400       1.64018500
H       -4.05713600      -1.01617400       1.85284600
N        0.59270100      -2.23273000      -0.41306100
H        1.05530800      -1.38341600      -0.80920200
H        0.50629000      -2.02088400       0.58350100
C        1.40969600      -3.43819600      -0.64952400
H        0.91878900      -4.30391800      -0.20469500
H        1.51341400      -3.58963300      -1.72374900
H        2.38752400      -3.28056500      -0.19497500
H       -0.38670800      -2.30126900      -0.76662100
H        0.47545200       3.03749300      -0.87300800
H       -0.18116600       1.48013300      -1.39049100
H       -1.75782300       3.38723300      -1.92449500
H       -2.47095500       2.20077500      -0.82136200
H       -1.48836200       4.86336800      -0.08683000
H       -2.89482900       4.13031300       0.31670400
H        0.77236900       1.67694500       0.93338800
H       -0.65614000       2.54653600       1.28000300
C       -0.33811400       2.32338000      -0.71763300
C       -1.70313000       2.97410400      -0.90920800
N       -0.23077200       1.83249500       0.67878500
N       -1.90967200       3.97060800       0.14615800
H       -0.74315800       0.92826100       0.80231600
37
2msa1ma1eda-04
S        2.75555500       0.12579500      -0.22936700
O        2.52292800       1.11472000      -1.30937100
O        2.86652300      -1.27772400      -0.70876500
O        1.74260900       0.24681700       0.86307800
C        4.33743800       0.52757600       0.48807100
H        4.28641500       1.54234800       0.88284900
H        4.54403600      -0.18737800       1.28446700
H        5.09007000       0.45696900      -0.29735000
S       -2.32273700      -0.84279600      -0.40395200
O       -2.29604200       0.24881800      -1.41318500
O       -1.55962400      -0.47306900       0.82377900
O       -1.88869200      -2.15916300      -0.93688000
C       -4.02790600      -1.02771000       0.07908000
H       -4.36948200      -0.07874100       0.49335600
H       -4.60301100      -1.29221200      -0.80845000
H       -4.08648500      -1.81796600       0.82750700
N        0.56530000      -2.37640600       0.32869200
H        1.44096300      -2.15508400      -0.19304100
H        0.35130300      -1.51838300       0.85555300
C        0.71319900      -3.53953700       1.22267200
H       -0.22401300      -3.69857700       1.75564500
H        0.95288200      -4.42162100       0.62937300
H        1.51683300      -3.34527300       1.93268300
H       -0.24264100      -2.48200900      -0.31793100
H        0.36454000       3.60573800       0.19872100
H       -0.67590100       3.69756500      -1.23781000
H       -1.97842300       4.20364000       0.79468100
H       -2.57596800       2.74052800       0.02131000
H       -1.61089400       1.41735800       1.69190400
H       -0.83216900       2.70811100       2.39046900
H        0.76251500       1.71446300      -1.22914600
H        0.14113300       1.22026500       0.17594300
C       -0.49026600       3.15064100      -0.30968700
C       -1.73459100       3.15569400       0.58615900
N       -0.10449900       1.76610100      -0.66610500
N       -1.62906000       2.42523500       1.83208200
H       -0.88784700       1.25458800      -1.12732600
