1sa_1goaw_2w.log
 OpenBabel02281910293D
Gaussian groups/kemi/kmacke/programs/G09D/g09/g09 # opt freq wb97xd/6-31++g(d,p)
 23 19  0  0  0  0  0  0  0  0999 V2000
   -2.4477    0.2250   -0.1273 C   0  0  0  0  0  0  0  0  0  0  0  0
   -1.6424   -0.4668   -0.7408 O   0  0  0  0  0  0  0  0  0  0  0  0
   -2.1776    1.3231    0.5203 O   0  0  0  0  0  0  0  0  0  0  0  0
   -1.2102    1.5382    0.4859 H   0  0  0  0  0  0  0  0  0  0  0  0
   -3.9231   -0.1861   -0.0640 C   0  0  0  0  0  0  0  0  0  0  0  0
   -4.5598    0.7045   -0.0610 H   0  0  0  0  0  0  0  0  0  0  0  0
   -4.2761   -0.9266   -1.1785 O   0  0  0  0  0  0  0  0  0  0  0  0
   -4.0272   -0.9025    1.1374 O   0  0  0  0  0  0  0  0  0  0  0  0
   -4.9483   -1.1560    1.2574 H   0  0  0  0  0  0  0  0  0  0  0  0
   -3.5685   -1.5633   -1.3503 H   0  0  0  0  0  0  0  0  0  0  0  0
    1.4464    0.8137    0.0534 S   0  0  0  0  0  0  0  0  0  0  0  0
    0.4508    1.8409    0.3246 O   0  0  0  0  0  0  0  0  0  0  0  0
    2.7839    1.2205   -0.3242 O   0  0  0  0  0  0  0  0  0  0  0  0
    0.9309   -0.1204   -1.1063 O   0  0  0  0  0  0  0  0  0  0  0  0
    1.4706   -0.1055    1.3146 O   0  0  0  0  0  0  0  0  0  0  0  0
   -0.0524   -0.2894   -0.9903 H   0  0  0  0  0  0  0  0  0  0  0  0
    2.2059   -0.8194    1.2613 H   0  0  0  0  0  0  0  0  0  0  0  0
    3.8578   -1.6393    0.3325 H   0  0  0  0  0  0  0  0  0  0  0  0
    3.9136   -1.9518    1.8705 H   0  0  0  0  0  0  0  0  0  0  0  0
    3.3130   -1.8598    1.1260 O   0  0  0  0  0  0  0  0  0  0  0  0
    4.5442   -0.8593   -1.0247 O   0  0  0  0  0  0  0  0  0  0  0  0
    4.0778   -0.0066   -0.9950 H   0  0  0  0  0  0  0  0  0  0  0  0
    4.4051   -1.2181   -1.9049 H   0  0  0  0  0  0  0  0  0  0  0  0
  1  5  1  0  0  0  0
  1  3  1  0  0  0  0
  2  1  2  0  0  0  0
  4  3  1  0  0  0  0
  5  6  1  0  0  0  0
  5  8  1  0  0  0  0
  7  5  1  0  0  0  0
  8  9  1  0  0  0  0
 10  7  1  0  0  0  0
 11 12  2  0  0  0  0
 11 15  1  0  0  0  0
 13 11  2  0  0  0  0
 14 16  1  0  0  0  0
 14 11  1  0  0  0  0
 17 15  1  0  0  0  0
 18 20  1  0  0  0  0
 20 19  1  0  0  0  0
 21 22  1  0  0  0  0
 23 21  1  0  0  0  0
M  END
$$$$
