1sa_1a_1goaw_2w.log
 OpenBabel02281910293D
Gaussian groups/kemi/kmacke/programs/G09D/g09/g09 # opt freq wb97xd/6-31++g(d,p)
 27 22  0  0  0  0  0  0  0  0999 V2000
    2.0915   -0.3413    0.5867 C   0  0  0  0  0  0  0  0  0  0  0  0
    1.9006   -1.4735    0.1735 O   0  0  0  0  0  0  0  0  0  0  0  0
    1.2737    0.3766    1.3055 O   0  0  0  0  0  0  0  0  0  0  0  0
    0.3489   -0.0537    1.3592 H   0  0  0  0  0  0  0  0  0  0  0  0
    3.3695    0.4174    0.2137 C   0  0  0  0  0  0  0  0  0  0  0  0
    3.8599    0.8259    1.1034 H   0  0  0  0  0  0  0  0  0  0  0  0
    4.2609   -0.4002   -0.4395 O   0  0  0  0  0  0  0  0  0  0  0  0
    2.9123    1.4879   -0.6115 O   0  0  0  0  0  0  0  0  0  0  0  0
    3.6852    1.8534   -1.0556 H   0  0  0  0  0  0  0  0  0  0  0  0
    3.7621   -1.1392   -0.8210 H   0  0  0  0  0  0  0  0  0  0  0  0
   -1.4242   -1.1132   -0.1375 S   0  0  0  0  0  0  0  0  0  0  0  0
   -1.1026   -0.4773    1.1863 O   0  0  0  0  0  0  0  0  0  0  0  0
   -2.8487   -1.3471   -0.3212 O   0  0  0  0  0  0  0  0  0  0  0  0
   -0.7465   -2.5591   -0.0935 O   0  0  0  0  0  0  0  0  0  0  0  0
   -0.7559   -0.3812   -1.2390 O   0  0  0  0  0  0  0  0  0  0  0  0
    0.2203   -2.4201   -0.0099 H   0  0  0  0  0  0  0  0  0  0  0  0
   -0.2324    1.1777   -1.1198 H   0  0  0  0  0  0  0  0  0  0  0  0
    0.0140    2.1599   -0.8339 N   0  0  0  0  0  0  0  0  0  0  0  0
   -0.1122    2.7971   -1.6151 H   0  0  0  0  0  0  0  0  0  0  0  0
    0.9910    2.1689   -0.5208 H   0  0  0  0  0  0  0  0  0  0  0  0
   -0.6719    2.3814   -0.0585 H   0  0  0  0  0  0  0  0  0  0  0  0
   -1.9398    2.2615    1.0301 O   0  0  0  0  0  0  0  0  0  0  0  0
   -1.7510    1.4086    1.4541 H   0  0  0  0  0  0  0  0  0  0  0  0
   -2.7773    2.0820    0.5527 H   0  0  0  0  0  0  0  0  0  0  0  0
   -4.0381    1.2188   -0.4176 O   0  0  0  0  0  0  0  0  0  0  0  0
   -4.9605    1.2193   -0.1517 H   0  0  0  0  0  0  0  0  0  0  0  0
   -3.7673    0.2822   -0.4659 H   0  0  0  0  0  0  0  0  0  0  0  0
  1  3  1  0  0  0  0
  2  1  2  0  0  0  0
  3  4  1  0  0  0  0
  5  1  1  0  0  0  0
  5  6  1  0  0  0  0
  7  5  1  0  0  0  0
  8  5  1  0  0  0  0
  9  8  1  0  0  0  0
 10  7  1  0  0  0  0
 11 14  1  0  0  0  0
 11 12  1  0  0  0  0
 13 11  2  0  0  0  0
 14 16  1  0  0  0  0
 15 11  2  0  0  0  0
 17 18  1  0  0  0  0
 18 20  1  0  0  0  0
 18 21  1  0  0  0  0
 19 18  1  0  0  0  0
 22 23  1  0  0  0  0
 24 22  1  0  0  0  0
 25 26  1  0  0  0  0
 27 25  1  0  0  0  0
M  RAD  1  12   2
M  END
$$$$
