1sa_1a_1goaw_4w.log
 OpenBabel02281910293D
Gaussian groups/kemi/kmacke/programs/G09D/g09/g09 # opt freq wb97xd/6-31++g(d,p)
 33 26  0  0  0  0  0  0  0  0999 V2000
    2.1189   -0.7677    0.6413 C   0  0  0  0  0  0  0  0  0  0  0  0
    2.0321   -1.6329   -0.2204 O   0  0  0  0  0  0  0  0  0  0  0  0
    1.3416   -0.6389    1.6843 O   0  0  0  0  0  0  0  0  0  0  0  0
    0.5120   -1.1971    1.5867 H   0  0  0  0  0  0  0  0  0  0  0  0
    3.1485    0.3647    0.5088 C   0  0  0  0  0  0  0  0  0  0  0  0
    3.6362    0.5585    1.4667 H   0  0  0  0  0  0  0  0  0  0  0  0
    4.0940    0.0321   -0.4392 O   0  0  0  0  0  0  0  0  0  0  0  0
    2.4382    1.5423    0.1893 O   0  0  0  0  0  0  0  0  0  0  0  0
    2.1180    1.4889   -0.7372 H   0  0  0  0  0  0  0  0  0  0  0  0
    3.7310   -0.6920   -0.9713 H   0  0  0  0  0  0  0  0  0  0  0  0
   -1.2297   -1.4181   -0.2825 S   0  0  0  0  0  0  0  0  0  0  0  0
   -0.9745   -1.7315    1.1545 O   0  0  0  0  0  0  0  0  0  0  0  0
   -2.6295   -1.5388   -0.6806 O   0  0  0  0  0  0  0  0  0  0  0  0
   -0.4489   -2.5268   -1.1288 O   0  0  0  0  0  0  0  0  0  0  0  0
   -0.6267   -0.1070   -0.6264 O   0  0  0  0  0  0  0  0  0  0  0  0
    0.4959   -2.4674   -0.8675 H   0  0  0  0  0  0  0  0  0  0  0  0
   -0.7581    2.4485   -1.7446 H   0  0  0  0  0  0  0  0  0  0  0  0
   -0.1370    2.2662    1.2665 N   0  0  0  0  0  0  0  0  0  0  0  0
    0.0001    3.0652    1.8792 H   0  0  0  0  0  0  0  0  0  0  0  0
    0.7765    1.8331    1.0566 H   0  0  0  0  0  0  0  0  0  0  0  0
   -0.8050    1.5866    1.7053 H   0  0  0  0  0  0  0  0  0  0  0  0
   -2.1894    0.6930    2.1966 O   0  0  0  0  0  0  0  0  0  0  0  0
   -1.9549   -0.2467    2.1338 H   0  0  0  0  0  0  0  0  0  0  0  0
   -2.8220    0.8452    1.4723 H   0  0  0  0  0  0  0  0  0  0  0  0
   -3.5033    1.0555   -0.3401 O   0  0  0  0  0  0  0  0  0  0  0  0
   -4.4296    1.2379   -0.5176 H   0  0  0  0  0  0  0  0  0  0  0  0
   -3.3372    0.1277   -0.6110 H   0  0  0  0  0  0  0  0  0  0  0  0
   -1.3818    2.8188   -1.1027 O   0  0  0  0  0  0  0  0  0  0  0  0
   -2.1194    2.1844   -1.0323 H   0  0  0  0  0  0  0  0  0  0  0  0
   -0.5768    2.5717    0.3594 H   0  0  0  0  0  0  0  0  0  0  0  0
    0.9593    1.3157   -2.1391 O   0  0  0  0  0  0  0  0  0  0  0  0
    1.2646    1.0668   -3.0150 H   0  0  0  0  0  0  0  0  0  0  0  0
    0.4103    0.5803   -1.7878 H   0  0  0  0  0  0  0  0  0  0  0  0
  1  3  1  0  0  0  0
  2  1  2  0  0  0  0
  4  3  1  0  0  0  0
  5  1  1  0  0  0  0
  5  6  1  0  0  0  0
  7  5  1  0  0  0  0
  8  5  1  0  0  0  0
  9  8  1  0  0  0  0
 10  7  1  0  0  0  0
 11 12  1  0  0  0  0
 13 11  2  0  0  0  0
 14 16  1  0  0  0  0
 14 11  1  0  0  0  0
 15 11  2  0  0  0  0
 17 28  1  0  0  0  0
 18 21  1  0  0  0  0
 18 19  1  0  0  0  0
 20 18  1  0  0  0  0
 23 22  1  0  0  0  0
 24 22  1  0  0  0  0
 26 25  1  0  0  0  0
 27 25  1  0  0  0  0
 28 29  1  0  0  0  0
 30 18  1  0  0  0  0
 31 33  1  0  0  0  0
 32 31  1  0  0  0  0
M  RAD  1  12   2
M  END
$$$$
