2sa_1goaw_3w.log
 OpenBabel02281910293D
Gaussian groups/kemi/kmacke/programs/G09D/g09/g09 # opt freq wb97xd/6-31++g(d,p)
 33 27  0  0  0  0  0  0  0  0999 V2000
   -0.0028    2.5078   -0.6308 C   0  0  0  0  0  0  0  0  0  0  0  0
   -1.1537    3.1279   -1.1083 O   0  0  0  0  0  0  0  0  0  0  0  0
    0.8434    3.2018   -0.5880 H   0  0  0  0  0  0  0  0  0  0  0  0
   -0.2581    2.0151    0.8104 C   0  0  0  0  0  0  0  0  0  0  0  0
    0.7121    1.6811    1.4902 O   0  0  0  0  0  0  0  0  0  0  0  0
   -1.4502    1.9626    1.2982 O   0  0  0  0  0  0  0  0  0  0  0  0
   -2.2367    2.0615    0.6556 H   0  0  0  0  0  0  0  0  0  0  0  0
    0.4054    1.4505   -1.4565 O   0  0  0  0  0  0  0  0  0  0  0  0
   -0.9530    3.5365   -1.9571 H   0  0  0  0  0  0  0  0  0  0  0  0
   -0.2202    0.7010   -1.3510 H   0  0  0  0  0  0  0  0  0  0  0  0
   -2.2204   -1.3591   -0.1751 S   0  0  0  0  0  0  0  0  0  0  0  0
   -1.0849   -0.5069   -0.5418 O   0  0  0  0  0  0  0  0  0  0  0  0
   -3.5536   -0.8863   -0.4810 O   0  0  0  0  0  0  0  0  0  0  0  0
   -2.1200   -1.6572    1.3449 O   0  0  0  0  0  0  0  0  0  0  0  0
   -2.0466   -2.7402   -0.8813 O   0  0  0  0  0  0  0  0  0  0  0  0
   -1.2054   -1.3724    1.7531 H   0  0  0  0  0  0  0  0  0  0  0  0
   -1.0700   -3.0064   -0.8628 H   0  0  0  0  0  0  0  0  0  0  0  0
    3.1096   -0.2690   -0.1106 S   0  0  0  0  0  0  0  0  0  0  0  0
    1.9236   -1.0811    0.2046 O   0  0  0  0  0  0  0  0  0  0  0  0
    4.4017   -0.8803   -0.1505 O   0  0  0  0  0  0  0  0  0  0  0  0
    3.1455    0.9254    0.9103 O   0  0  0  0  0  0  0  0  0  0  0  0
    2.8590    0.4216   -1.5069 O   0  0  0  0  0  0  0  0  0  0  0  0
    2.2246    1.2653    1.1141 H   0  0  0  0  0  0  0  0  0  0  0  0
    1.9497    0.8261   -1.5364 H   0  0  0  0  0  0  0  0  0  0  0  0
    0.0813   -0.9668    2.3415 O   0  0  0  0  0  0  0  0  0  0  0  0
    0.0964   -0.0142    2.5215 H   0  0  0  0  0  0  0  0  0  0  0  0
    0.7950   -1.0888    1.6900 H   0  0  0  0  0  0  0  0  0  0  0  0
    0.4888   -3.2512   -0.8094 O   0  0  0  0  0  0  0  0  0  0  0  0
    1.0502   -2.4869   -0.5846 H   0  0  0  0  0  0  0  0  0  0  0  0
    0.8674   -4.0188   -0.3732 H   0  0  0  0  0  0  0  0  0  0  0  0
   -3.5605    1.9104   -0.1224 O   0  0  0  0  0  0  0  0  0  0  0  0
   -3.4086    2.2650   -1.0038 H   0  0  0  0  0  0  0  0  0  0  0  0
   -3.7792    0.9671   -0.2368 H   0  0  0  0  0  0  0  0  0  0  0  0
  1  3  1  0  0  0  0
  1  4  1  0  0  0  0
  2  1  1  0  0  0  0
  4  6  1  0  0  0  0
  4  5  2  0  0  0  0
  7  6  1  0  0  0  0
  8 10  1  0  0  0  0
  8  1  1  0  0  0  0
  9  2  1  0  0  0  0
 11 14  1  0  0  0  0
 12 11  2  0  0  0  0
 13 11  2  0  0  0  0
 14 16  1  0  0  0  0
 15 17  1  0  0  0  0
 15 11  1  0  0  0  0
 18 19  2  0  0  0  0
 18 21  1  0  0  0  0
 20 18  2  0  0  0  0
 21 23  1  0  0  0  0
 22 18  1  0  0  0  0
 24 22  1  0  0  0  0
 25 26  1  0  0  0  0
 27 25  1  0  0  0  0
 28 29  1  0  0  0  0
 28 30  1  0  0  0  0
 32 31  1  0  0  0  0
 33 31  1  0  0  0  0
M  END
$$$$
