2sa_1goaw_7w.log
 OpenBabel02281910293D
Gaussian groups/kemi/kmacke/programs/G09D/g09/g09 # opt freq wb97xd/6-31++g(d,p)
 45 33  0  0  0  0  0  0  0  0999 V2000
   -0.2214    2.4716   -0.1883 C   0  0  0  0  0  0  0  0  0  0  0  0
   -1.2206    2.4254   -1.1582 O   0  0  0  0  0  0  0  0  0  0  0  0
   -0.1733    3.5043    0.1678 H   0  0  0  0  0  0  0  0  0  0  0  0
   -0.5746    1.5593    1.0208 C   0  0  0  0  0  0  0  0  0  0  0  0
    0.3602    0.8670    1.5474 O   0  0  0  0  0  0  0  0  0  0  0  0
   -1.7486    1.5640    1.4267 O   0  0  0  0  0  0  0  0  0  0  0  0
   -3.0107    2.4555    0.6021 H   0  0  0  0  0  0  0  0  0  0  0  0
    1.0389    2.1752   -0.7148 O   0  0  0  0  0  0  0  0  0  0  0  0
   -1.3139    1.4914   -1.4188 H   0  0  0  0  0  0  0  0  0  0  0  0
    1.1185    1.2268   -0.9231 H   0  0  0  0  0  0  0  0  0  0  0  0
   -1.9192   -1.3595   -0.9894 S   0  0  0  0  0  0  0  0  0  0  0  0
   -0.8710   -0.3246   -1.0574 O   0  0  0  0  0  0  0  0  0  0  0  0
   -3.2280   -0.9540   -1.5182 O   0  0  0  0  0  0  0  0  0  0  0  0
   -2.0283   -1.9341    0.3909 O   0  0  0  0  0  0  0  0  0  0  0  0
   -1.4570   -2.5431   -1.9373 O   0  0  0  0  0  0  0  0  0  0  0  0
   -0.9148   -1.7397    1.4248 H   0  0  0  0  0  0  0  0  0  0  0  0
   -0.4841   -2.6791   -1.8082 H   0  0  0  0  0  0  0  0  0  0  0  0
    3.3874   -0.1506    0.1697 S   0  0  0  0  0  0  0  0  0  0  0  0
    2.3408   -0.2736   -0.8634 O   0  0  0  0  0  0  0  0  0  0  0  0
    3.9438   -1.3941    0.6634 O   0  0  0  0  0  0  0  0  0  0  0  0
    2.8268    0.7135    1.3316 O   0  0  0  0  0  0  0  0  0  0  0  0
    4.5671    0.7051   -0.3684 O   0  0  0  0  0  0  0  0  0  0  0  0
    1.7911    0.8462    1.3174 H   0  0  0  0  0  0  0  0  0  0  0  0
    4.2411    1.6314   -0.6490 H   0  0  0  0  0  0  0  0  0  0  0  0
   -0.1987   -1.5375    2.1153 O   0  0  0  0  0  0  0  0  0  0  0  0
    0.0172   -0.5441    2.0111 H   0  0  0  0  0  0  0  0  0  0  0  0
    0.6233   -2.1131    1.8784 H   0  0  0  0  0  0  0  0  0  0  0  0
    1.2065   -2.7201   -1.4147 O   0  0  0  0  0  0  0  0  0  0  0  0
    1.5569   -1.8062   -1.3384 H   0  0  0  0  0  0  0  0  0  0  0  0
    1.7669   -3.1745   -2.0514 H   0  0  0  0  0  0  0  0  0  0  0  0
    1.7162   -2.9900    1.3497 O   0  0  0  0  0  0  0  0  0  0  0  0
    2.6047   -2.5939    1.3600 H   0  0  0  0  0  0  0  0  0  0  0  0
    1.5355   -3.1634    0.4079 H   0  0  0  0  0  0  0  0  0  0  0  0
   -3.7782    2.7198    0.0415 O   0  0  0  0  0  0  0  0  0  0  0  0
   -4.5022    1.4292   -0.0921 H   0  0  0  0  0  0  0  0  0  0  0  0
   -3.3458    3.0209   -0.7681 H   0  0  0  0  0  0  0  0  0  0  0  0
    3.5983    2.9906   -1.0240 O   0  0  0  0  0  0  0  0  0  0  0  0
    2.6276    2.9075   -0.9151 H   0  0  0  0  0  0  0  0  0  0  0  0
    3.7568    3.3318   -1.9084 H   0  0  0  0  0  0  0  0  0  0  0  0
   -4.8468    0.4526   -0.0246 O   0  0  0  0  0  0  0  0  0  0  0  0
   -4.5019    0.1172    0.8911 H   0  0  0  0  0  0  0  0  0  0  0  0
   -4.3319   -0.0928   -0.6876 H   0  0  0  0  0  0  0  0  0  0  0  0
   -3.6706   -0.3465    2.0615 O   0  0  0  0  0  0  0  0  0  0  0  0
   -3.2427   -1.1459    1.7117 H   0  0  0  0  0  0  0  0  0  0  0  0
   -2.9407    0.3002    2.1313 H   0  0  0  0  0  0  0  0  0  0  0  0
  1  3  1  0  0  0  0
  1  4  1  0  0  0  0
  2  1  1  0  0  0  0
  4  6  2  0  0  0  0
  4  5  1  0  0  0  0
  8  1  1  0  0  0  0
  9  2  1  0  0  0  0
 10  8  1  0  0  0  0
 11 14  1  0  0  0  0
 12 11  2  0  0  0  0
 13 11  2  0  0  0  0
 15 17  1  0  0  0  0
 15 11  1  0  0  0  0
 16 25  1  0  0  0  0
 18 20  2  0  0  0  0
 18 21  1  0  0  0  0
 19 18  2  0  0  0  0
 22 18  1  0  0  0  0
 23 21  1  0  0  0  0
 24 22  1  0  0  0  0
 26 25  1  0  0  0  0
 28 29  1  0  0  0  0
 30 28  1  0  0  0  0
 31 32  1  0  0  0  0
 33 31  1  0  0  0  0
 34  7  1  0  0  0  0
 36 34  1  0  0  0  0
 37 38  1  0  0  0  0
 39 37  1  0  0  0  0
 40 41  1  0  0  0  0
 42 40  1  0  0  0  0
 43 45  1  0  0  0  0
 44 43  1  0  0  0  0
M  RAD  4   5   2  14   2  27   2  35   2
M  END
$$$$
