2sa_1goaw.log
 OpenBabel02281910293D
Gaussian groups/kemi/kmacke/programs/G09D/g09/g09 # opt freq wb97xd/6-31++g(d,p)
 24 21  0  0  0  0  0  0  0  0999 V2000
   -0.1051    2.4568   -0.4324 C   0  0  0  0  0  0  0  0  0  0  0  0
   -1.0608    3.3387   -0.9422 O   0  0  0  0  0  0  0  0  0  0  0  0
    0.8268    2.9734   -0.1742 H   0  0  0  0  0  0  0  0  0  0  0  0
   -0.7195    1.8715    0.8579 C   0  0  0  0  0  0  0  0  0  0  0  0
   -0.1075    1.0619    1.5391 O   0  0  0  0  0  0  0  0  0  0  0  0
   -1.9199    2.2669    1.1839 O   0  0  0  0  0  0  0  0  0  0  0  0
   -2.2654    2.8517    0.4854 H   0  0  0  0  0  0  0  0  0  0  0  0
    0.2314    1.4469   -1.3288 O   0  0  0  0  0  0  0  0  0  0  0  0
   -0.7988    3.6422   -1.8179 H   0  0  0  0  0  0  0  0  0  0  0  0
   -0.4843    0.7701   -1.3437 H   0  0  0  0  0  0  0  0  0  0  0  0
   -2.0173   -1.4878   -0.1844 S   0  0  0  0  0  0  0  0  0  0  0  0
   -1.7849   -0.1770   -0.8002 O   0  0  0  0  0  0  0  0  0  0  0  0
   -3.3014   -2.1025   -0.3023 O   0  0  0  0  0  0  0  0  0  0  0  0
   -1.6681   -1.3567    1.3594 O   0  0  0  0  0  0  0  0  0  0  0  0
   -0.9510   -2.5090   -0.7314 O   0  0  0  0  0  0  0  0  0  0  0  0
   -1.0376   -0.6258    1.5277 H   0  0  0  0  0  0  0  0  0  0  0  0
   -0.0342   -2.1899   -0.5471 H   0  0  0  0  0  0  0  0  0  0  0  0
    2.5552   -0.6461    0.0612 S   0  0  0  0  0  0  0  0  0  0  0  0
    1.2745   -1.3497    0.1205 O   0  0  0  0  0  0  0  0  0  0  0  0
    3.7914   -1.3519    0.1797 O   0  0  0  0  0  0  0  0  0  0  0  0
    2.4897    0.4774    1.1745 O   0  0  0  0  0  0  0  0  0  0  0  0
    2.6102    0.1784   -1.2880 O   0  0  0  0  0  0  0  0  0  0  0  0
    1.5406    0.6838    1.3762 H   0  0  0  0  0  0  0  0  0  0  0  0
    1.7648    0.6797   -1.4024 H   0  0  0  0  0  0  0  0  0  0  0  0
  1  3  1  0  0  0  0
  1  4  1  0  0  0  0
  2  1  1  0  0  0  0
  4  6  1  0  0  0  0
  4  5  2  0  0  0  0
  7  6  1  0  0  0  0
  8  1  1  0  0  0  0
  9  2  1  0  0  0  0
 10  8  1  0  0  0  0
 11 14  1  0  0  0  0
 12 11  2  0  0  0  0
 13 11  2  0  0  0  0
 14 16  1  0  0  0  0
 15 17  1  0  0  0  0
 15 11  1  0  0  0  0
 18 19  2  0  0  0  0
 18 20  2  0  0  0  0
 18 21  1  0  0  0  0
 21 23  1  0  0  0  0
 22 18  1  0  0  0  0
 24 22  1  0  0  0  0
M  END
$$$$
