22
2nta1eda-1
H        1.25700300       1.86159100      -0.86594600
H       -0.27734300       2.68528100      -1.18123900
H        0.28139200       2.66812400       1.21295600
H       -1.25710700       1.85660900       0.88670300
H        0.28243200       0.69263800       2.43175200
H       -0.21922700      -0.21712500       1.18341000
H       -0.29135400       0.72745500      -2.42609000
H        0.21120800      -0.20150100      -1.19238900
C        0.17073000       1.79458800      -0.73277300
C       -0.17113200       1.78563100       0.75287200
N       -0.37166600       0.60683200      -1.41955800
N        0.36532600       0.58625500       1.42382100
N        3.00406300      -0.68925500      -0.10427700
O        1.99134400      -1.08287400      -0.68470800
O        4.13760300      -0.99293100      -0.37588600
O        2.83951300       0.15395400       0.91477800
H        1.78393600       0.29324400       1.08619500
N       -3.00183600      -0.69382900       0.09679000
O       -1.98511700      -1.10801600       0.65576500
O       -4.13410400      -0.99811800       0.37299200
O       -2.84321200       0.17416500      -0.90209900
H       -1.78794700       0.31291100      -1.08010700
22
2nta1eda-2
H        2.35148000      -2.81814200       0.10356200
H        2.34807400      -1.20803300       0.87707400
H        0.62920200      -2.81773500       1.89144700
H       -0.08672900      -1.34637500       1.22769400
H       -0.40777400      -4.01484300       0.20116800
H       -1.34430900      -2.67265600      -0.01659400
H        2.23861400      -1.20598800      -1.61880500
H        0.69843800      -1.88123300      -1.43229200
C        1.75940100      -1.91957400       0.29612100
C        0.42870600      -2.27309900       0.96285300
N        1.42928200      -1.29111100      -1.00877500
N       -0.39279400      -3.02101300       0.01212400
H        1.04560100      -0.30328300      -0.83822500
N       -2.49052300       0.51810900      -0.07524800
O       -1.80919600      -0.45173900      -0.40158300
O       -3.67824700       0.52152400       0.12290700
O       -1.86547100       1.69000000       0.07963300
H       -0.87091300       1.53199500      -0.09615800
N        1.61826000       1.78516400       0.05758200
O        1.44195300       2.88742500       0.54046700
O        2.71609300       1.22147500      -0.03254100
O        0.58488000       1.12560200      -0.40294600
22
2nta1eda-4
H       -2.49327300      -1.59504200       1.15068000
H       -1.32328600      -0.33093700       1.58282700
H       -3.66472300       0.59139000       1.44263400
H       -2.57339000       1.33964700       0.27321300
H       -4.64781000      -0.63144900      -0.33712800
H       -4.29016400       0.76564200      -1.10823200
H       -0.63350100      -1.76600200      -0.32739100
H       -1.95842300      -1.05226200      -1.18346000
C       -2.03306400      -0.65938700       0.82263600
C       -3.08402200       0.40699800       0.53041600
N       -1.28123300      -0.94106700      -0.42224600
N       -3.88670900      -0.02158700      -0.61555000
H       -0.64948600      -0.15696900      -0.64049500
N        1.10914700       2.17879500       0.01309700
O        0.02011400       1.59856800      -0.05659300
O        1.26130000       3.33910900       0.29117000
O        2.21197800       1.48016100      -0.23401900
H        1.95171600       0.49696600      -0.45104400
N        1.68392000      -1.82008100      -0.02468400
O        0.74654000      -2.64637600       0.12337000
O        1.46652300      -0.84013200      -0.83083500
O        2.74466700      -1.92121400       0.56012900
