38
2sa1nta1ma1eda-2
N        1.57424800       1.39418300      -1.43428900
H        2.42408900       1.20600200      -0.89475700
H        1.02210500       0.50604500      -1.39517500
C        1.88524900       1.78702800      -2.82386400
H        0.94926700       1.94007900      -3.36014500
H        2.46075600       2.71226300      -2.82114900
H        2.46170100       0.99277000      -3.29713600
H        0.99439500       2.10615900      -0.94552100
H       -3.92004900      -0.87575200      -1.73413400
H       -2.18489700      -1.29229500      -1.67031900
H       -3.61927800      -3.36443200      -1.80949300
H       -2.67461900      -3.28841800      -0.31657000
H       -5.55114000      -2.81672900      -0.55458700
H       -4.73405100      -3.69775700       0.55595200
H       -2.89718800       0.36293100       0.00463900
H       -3.83960300      -0.87677700       0.70470000
C       -3.14130200      -1.37650400      -1.15253800
C       -3.50502500      -2.82746300      -0.85960900
N       -3.01157300      -0.66160000       0.14113000
N       -4.69702100      -2.85878500      -0.00956300
H       -2.17110400      -1.02687000       0.63949900
N        4.44615300      -0.66696800       0.27658400
O        3.75259100      -0.20259900      -0.62654700
O        5.51613200      -0.25242600       0.63819400
O        3.98594400      -1.74316000       0.91539100
H        3.04371800      -1.92836000       0.58288000
S       -1.39636500       2.47926300       0.47971100
O       -2.46290700       2.00617800      -0.41137300
O       -1.01323200       1.47974300       1.50412400
O       -0.22929700       3.07474400      -0.19872600
O       -2.10681400       3.69239300       1.27941800
H       -1.44964000       4.11002400       1.85312400
S        0.44319800      -1.41834700       0.31993400
O        0.06008100      -0.84049100      -0.99717200
O       -0.73496900      -1.94025600       1.03391300
O        1.57702700      -2.35130900       0.25071400
O        1.03309200      -0.18996800       1.17218500
H        0.29885800       0.44747400       1.38192700
38
2sa1nta1ma1eda-3
N        1.58111800      -1.66565900       1.19375000
H        0.90682900      -2.18300100       0.59740700
H        2.45464300      -1.51399800       0.68029000
C        1.81346700      -2.34380400       2.48558200
H        2.47663100      -1.73012000       3.09445500
H        0.85579200      -2.46902900       2.98985300
H        2.26716600      -3.31891100       2.31076700
H        1.16672700      -0.71170800       1.32954100
H       -3.64750200       2.51793600      -0.89491300
H       -3.13941300       0.89866800      -1.42900600
H       -5.60646600       0.94984000      -0.90371000
H       -4.71822700      -0.15155100       0.15620100
H       -5.76357900       2.47782800       0.90288600
H       -5.86684900       1.05769300       1.70844200
H       -1.67331100       1.90974400       0.26522700
H       -2.99328000       1.82008400       1.34725800
C       -3.54560700       1.47173500      -0.59440600
C       -4.86794100       0.90301400      -0.09358100
N       -2.56024000       1.41553200       0.51223400
N       -5.26634700       1.62062000       1.11890700
H       -2.33395900       0.42321200       0.71449300
N        4.67529600       0.15273400      -0.40784600
O        3.98291900      -0.36378900       0.46789000
O        5.61552100      -0.35276800      -0.96243500
O        4.37470900       1.39826900      -0.77516300
H        3.51383700       1.66670300      -0.30565500
S       -1.60400400      -1.82747200      -0.57112700
O       -1.20389600      -0.70820500      -1.45625100
O       -0.49492500      -2.75476800      -0.28413600
O       -2.37155600      -1.38438900       0.59900600
O       -2.69358500      -2.68751500      -1.40904800
H       -2.24041200      -3.12180700      -2.14494300
S        0.87645300       1.60819800       0.10684100
O        0.43368400       0.80176800       1.27543800
O       -0.19423300       2.51774100      -0.33750900
O        2.18940600       2.24497200       0.27848200
O        1.14667900       0.54431300      -1.06967900
H        0.29610800       0.09350100      -1.30764600
38
2sa1nta1ma1eda-8
N        1.53426100       1.30936800       1.37688100
H        0.90937900       0.48840900       1.51363100
H        2.28840900       0.97856700       0.76279900
C        2.07433000       1.83651700       2.64675200
H        2.73211800       2.67839500       2.43409400
H        1.24729500       2.16426700       3.27600300
H        2.63703000       1.04925700       3.14723800
H        0.96173400       2.01050900       0.86424300
H       -4.35521700      -0.61032700      -0.71577800
H       -2.70253500      -0.96174700      -1.27382900
H       -4.11354900      -3.05728600      -1.14692400
H       -2.70226000      -3.10739300      -0.08860900
H       -5.47861600      -2.70168300       0.75913100
H       -4.34271400      -3.69230800       1.39122100
H       -2.92393700       0.48947000       0.76486200
H       -3.44912000      -0.93743100       1.54729600
C       -3.42668100      -1.13747000      -0.47978100
C       -3.66977900      -2.62269500      -0.24319900
N       -2.89272000      -0.54927900       0.77665100
N       -4.48833200      -2.78681000       0.96196200
H       -1.89124800      -0.80187000       0.92265200
N        4.55380100      -0.47854400      -0.42847500
O        3.95618800       0.14215700       0.45023200
O        5.60194200      -0.16598000      -0.92682600
O        4.01071600      -1.61370200      -0.87109000
H        3.12203800      -1.75509300      -0.40081600
S       -1.49101200       2.37398300      -0.47739500
O       -0.25072800       2.96061800       0.06595200
O       -1.28844700       1.17408500      -1.30755000
O       -2.54257700       2.19576600       0.54334300
O       -2.05532100       3.45194400      -1.54273800
H       -2.10680800       4.31414500      -1.10759000
S        0.46560000      -1.54816400      -0.09114500
O       -0.50690200      -2.36861300      -0.79785100
O       -0.14259900      -0.88668800       1.11558100
O        1.75763400      -2.17692000       0.23172200
O        0.91442000      -0.32618200      -1.03988500
H        0.12367800       0.22587500      -1.27186900
