46
3sa1am3ma-6
S       -2.68045900      -1.71509900      -0.03849600
O       -3.01546100      -1.06386700      -1.30842700
O       -1.30194800      -2.27821500      -0.03044600
O       -2.97360100      -0.91767700       1.16365200
O       -3.66686200      -2.99077000       0.13359900
H       -3.51102600      -3.60064700      -0.60030400
S        3.46425800      -0.96673800      -0.03469000
O        3.99275300      -0.06783000       0.99866200
O        2.46036700      -1.92703900       0.45514600
O        3.04967500      -0.26454500      -1.27606800
O        4.71453100      -1.85739400      -0.57112000
H        5.04493700      -2.38681000       0.16727800
S       -0.09361600       2.34783500       0.19722200
O       -0.85805700       1.76651200      -0.99575900
O        0.79522400       3.45569900      -0.27605300
O       -1.06652500       2.78878500       1.22108300
O        0.80282600       1.24221100       0.71329200
N        3.19626100       2.39095500      -0.27046800
H        3.16965200       1.60240500      -0.93570400
H        3.98784200       2.99741600      -0.46066100
H        2.25583600       2.91358900      -0.29195800
H        3.30669900       1.93008700       0.63822100
C       -0.18098000      -0.90972400       3.34983900
N        0.28643800      -1.02292500       1.95600900
H        1.21290100      -1.45440800       1.84421900
H       -0.35899400      -1.58047400       1.37412000
H        0.49942900      -0.26180200       3.90193700
H       -1.18003500      -0.47524400       3.34190500
H       -0.21430300      -1.89695900       3.81128000
H        0.37779900      -0.06971500       1.49730700
C       -4.57181400       1.94485400      -0.58274500
N       -3.30131600       1.67459700       0.11106000
H       -3.31790100       0.77580500       0.62327000
H       -2.47686900       1.61118700      -0.53926900
H       -5.37897300       2.03281100       0.14488400
H       -4.48202900       2.87201600      -1.14870600
H       -4.77262000       1.11421200      -1.25914700
H       -2.98808500       2.40329500       0.76411700
C       -0.10046300      -0.89400000      -3.15293700
N        0.25179500      -0.57825600      -1.75444300
H       -0.12840900      -1.29635500      -1.12096900
H        1.27359300      -0.51178400      -1.60827900
H       -1.18521100      -0.97817400      -3.22105500
H        0.25256500      -0.08992700      -3.79847900
H        0.36859100      -1.83375600      -3.44504000
H       -0.17438900       0.34292300      -1.46407600
46
3sa1am3ma-8
S        3.35791900      -1.01056200       0.19352300
O        3.45259600      -0.03252600       1.29712700
O        2.15401100      -1.87668400       0.33645100
O        3.53700300      -0.45609700      -1.14662700
O        4.62321500      -2.01259600       0.35510000
H        4.55968400      -2.45455300       1.21256100
S       -3.01261100      -1.75640600      -0.05057000
O       -3.86958100      -0.81314500      -0.79527800
O       -1.96855400      -2.37725800      -0.88864100
O       -2.52553900      -1.21599500       1.22813000
O       -3.97337500      -2.97659300       0.42040600
H       -4.29001600      -3.43340100      -0.37074600
S       -0.00843900       2.33238200      -0.27758400
O       -1.07488400       2.71405400      -1.24332700
O        0.81651900       1.17890600      -0.80670500
O        0.93123500       3.46473700      -0.00344800
O       -0.65436900       1.86711800       1.01766000
N        3.28960300       2.34184900      -0.24353400
H        3.12413800       1.70046400      -1.02644100
H        2.38363900       2.90654100      -0.10482000
H        3.44837800       1.71600200       0.56134400
H        4.10009000       2.92803900      -0.41572400
C        0.56114000      -0.55271200       3.25953300
N        0.12055600      -0.56218400       1.85086900
H        0.83318900      -1.01715800       1.25775300
H       -0.78649500      -1.03916800       1.71918100
H        1.53231700      -0.06119200       3.31325600
H       -0.16843200      -0.00711500       3.85769200
H        0.64649200      -1.57681300       3.62362700
H       -0.04829500       0.42010000       1.50213300
C       -4.31159300       2.67347400       0.50938700
N       -3.23613800       1.77803000       0.04919600
H       -3.58570500       0.86255900      -0.29037200
H       -2.62536700       2.21174900      -0.68262500
H       -4.86203600       2.19371300       1.31872700
H       -3.86991400       3.60546700       0.86203700
H       -4.98815300       2.87977200      -0.31976800
H       -2.52999400       1.59771900       0.78231300
C        0.81571200      -1.29178600      -3.22617300
N        0.40412300      -1.22642700      -1.81032800
H        0.42378200      -0.22727700      -1.46330600
H       -0.53363900      -1.62518000      -1.63274600
H        1.83000700      -0.90094900      -3.30505600
H        0.78697400      -2.32548400      -3.57138100
H        0.13519000      -0.68372900      -3.82177100
H        1.06949100      -1.72082100      -1.19847600
46
3sa1am3ma-1
S        1.98435500      -2.16969300       0.09757400
O        2.10016200      -1.29937700       1.31072700
O        1.32269400      -3.45471500       0.36908900
O        0.90994500      -1.43481800      -0.85514600
O        3.25676300      -2.22983500      -0.62815900
H        4.27816200      -0.42721300      -0.43272300
H        1.17931500      -0.48942500      -1.07345600
S        0.95386700       2.08895100      -0.43321100
O        1.62321100       1.03755900      -1.30995100
O       -0.23515000       1.40138100       0.25148600
O        1.91248900       2.54869600       0.58877200
O        0.37849300       3.17623000      -1.27152900
H       -1.26164100       3.16473200      -0.99527300
H       -0.06180800       0.68060000       1.69651700
S       -3.07074000      -0.35065000       0.16860800
O       -2.43214400      -1.13655500       1.28105400
O       -3.37866000       1.03271100       0.58616000
O       -1.90789400      -0.21657400      -0.94985500
O       -4.12318800      -1.09565800      -0.50092200
H       -1.74006500      -2.56922100       0.40532900
H       -1.18115800       0.36632000      -0.57906400
N       -0.11250900      -0.11100000       2.39291700
H       -0.06503700       0.20902200       3.35432400
H        0.69178100      -0.72839500       2.15097500
H       -1.01902600      -0.57504600       2.18432600
N        3.93127900       0.45206900      -0.03346500
H        3.46336200       0.17221000       0.83796600
H        3.13556300       0.77473800      -0.64465400
C        4.94361200       1.50898500       0.15652400
H        5.71104700       1.16490400       0.85009700
H        5.39416200       1.74449400      -0.80736200
H        4.43195500       2.38763300       0.54839400
N       -2.23704100       3.27040900      -0.59880200
H       -2.59365900       2.34271300      -0.28266500
H       -2.86081600       3.62691700      -1.31932500
C       -2.16748500       4.17589700       0.57077000
H       -1.46674900       3.73601400       1.27898600
H       -1.79920600       5.15066600       0.25273100
H       -3.15383700       4.26228800       1.02584800
N       -1.32658800      -3.06928800      -0.40613100
H       -0.42157700      -3.48561700      -0.11447500
H       -1.07475300      -2.31008100      -1.05001200
C       -2.29178700      -4.01767800      -1.00197800
H       -2.51659300      -4.79805200      -0.27562100
H       -3.20044200      -3.46820000      -1.24948200
H       -1.85449700      -4.46066500      -1.89622400
