1sa_3dma.log
 OpenBabel02271919103D
Gaussian kemi/andersx/programs/g09/g09 # opt freq wb97xd 6-31++g(d,p)
 37 33  0  0  0  0  0  0  0  0999 V2000
    0.6448   -0.1776   -0.4561 S   0  0  0  0  0  0  0  0  0  0  0  0
    1.8530    0.3002   -1.3743 O   0  0  0  0  0  0  0  0  0  0  0  0
   -0.4660   -0.4541   -1.3875 O   0  0  0  0  0  0  0  0  0  0  0  0
    0.3090    0.9878    0.4328 O   0  0  0  0  0  0  0  0  0  0  0  0
    1.1132   -1.3333    0.3219 O   0  0  0  0  0  0  0  0  0  0  0  0
    2.7160    0.1694   -0.8396 H   0  0  0  0  0  0  0  0  0  0  0  0
   -2.6417    0.4248    0.1494 H   0  0  0  0  0  0  0  0  0  0  0  0
   -2.5102    2.0023   -1.2079 C   0  0  0  0  0  0  0  0  0  0  0  0
   -3.5820    2.0523   -1.4143 H   0  0  0  0  0  0  0  0  0  0  0  0
   -2.0078    1.3509   -1.9241 H   0  0  0  0  0  0  0  0  0  0  0  0
   -2.0771    3.0032   -1.2583 H   0  0  0  0  0  0  0  0  0  0  0  0
   -2.2879    1.4359    0.1355 N   0  0  0  0  0  0  0  0  0  0  0  0
   -2.8823    2.2062    1.2374 C   0  0  0  0  0  0  0  0  0  0  0  0
   -1.2392    1.3313    0.2840 H   0  0  0  0  0  0  0  0  0  0  0  0
   -3.9629    2.2833    1.0972 H   0  0  0  0  0  0  0  0  0  0  0  0
   -2.6704    1.6963    2.1781 H   0  0  0  0  0  0  0  0  0  0  0  0
   -2.4456    3.2064    1.2653 H   0  0  0  0  0  0  0  0  0  0  0  0
    3.8824   -0.2001    0.2535 N   0  0  0  0  0  0  0  0  0  0  0  0
    5.2201   -0.5163   -0.2299 C   0  0  0  0  0  0  0  0  0  0  0  0
    3.8630    0.8135    1.3059 C   0  0  0  0  0  0  0  0  0  0  0  0
    3.4140   -1.0394    0.5909 H   0  0  0  0  0  0  0  0  0  0  0  0
    5.8972   -0.8476    0.5722 H   0  0  0  0  0  0  0  0  0  0  0  0
    5.1585   -1.3024   -0.9862 H   0  0  0  0  0  0  0  0  0  0  0  0
    5.6550    0.3728   -0.6971 H   0  0  0  0  0  0  0  0  0  0  0  0
    4.4694    0.5293    2.1791 H   0  0  0  0  0  0  0  0  0  0  0  0
    4.2545    1.7534    0.9042 H   0  0  0  0  0  0  0  0  0  0  0  0
    2.8297    0.9793    1.6200 H   0  0  0  0  0  0  0  0  0  0  0  0
   -2.8279   -1.2768    0.1115 N   0  0  0  0  0  0  0  0  0  0  0  0
   -4.0690   -1.9108   -0.3153 C   0  0  0  0  0  0  0  0  0  0  0  0
   -2.3057   -1.8230    1.3647 C   0  0  0  0  0  0  0  0  0  0  0  0
   -2.1054   -1.3823   -0.6047 H   0  0  0  0  0  0  0  0  0  0  0  0
   -4.8548   -1.7163    0.4226 H   0  0  0  0  0  0  0  0  0  0  0  0
   -4.3871   -1.4917   -1.2736 H   0  0  0  0  0  0  0  0  0  0  0  0
   -3.9708   -3.0010   -0.4275 H   0  0  0  0  0  0  0  0  0  0  0  0
   -2.9906   -1.5796    2.1848 H   0  0  0  0  0  0  0  0  0  0  0  0
   -2.1851   -2.9150    1.3275 H   0  0  0  0  0  0  0  0  0  0  0  0
   -1.3257   -1.3848    1.5706 H   0  0  0  0  0  0  0  0  0  0  0  0
  1  5  2  0  0  0  0
  1  4  1  0  0  0  0
  2  6  1  0  0  0  0
  2  1  1  0  0  0  0
  3  1  2  0  0  0  0
  8 12  1  0  0  0  0
  9  8  1  0  0  0  0
 10  8  1  0  0  0  0
 11  8  1  0  0  0  0
 12  7  1  0  0  0  0
 12 14  1  0  0  0  0
 12 13  1  0  0  0  0
 13 17  1  0  0  0  0
 13 16  1  0  0  0  0
 15 13  1  0  0  0  0
 18 21  1  0  0  0  0
 18 20  1  0  0  0  0
 19 18  1  0  0  0  0
 19 22  1  0  0  0  0
 20 27  1  0  0  0  0
 20 25  1  0  0  0  0
 23 19  1  0  0  0  0
 24 19  1  0  0  0  0
 26 20  1  0  0  0  0
 28 30  1  0  0  0  0
 29 28  1  0  0  0  0
 29 32  1  0  0  0  0
 30 37  1  0  0  0  0
 30 35  1  0  0  0  0
 31 28  1  0  0  0  0
 33 29  1  0  0  0  0
 34 29  1  0  0  0  0
 36 30  1  0  0  0  0
M  RAD  1   4   2
M  END
$$$$
