3sa_3dma.log
 OpenBabel02271919103D
Gaussian kemi/andersx/programs/g09/g09 # opt freq wb97xd 6-31++g(d,p)
 51 45  0  0  0  0  0  0  0  0999 V2000
   -2.2418    0.4329    1.3538 S   0  0  0  0  0  0  0  0  0  0  0  0
   -1.1683    1.4725    1.4505 O   0  0  0  0  0  0  0  0  0  0  0  0
   -3.4038    0.6837    2.1802 O   0  0  0  0  0  0  0  0  0  0  0  0
   -2.5480    0.1990   -0.0916 O   0  0  0  0  0  0  0  0  0  0  0  0
   -1.6111   -0.9312    1.9000 O   0  0  0  0  0  0  0  0  0  0  0  0
    3.6018    0.2244    0.0299 H   0  0  0  0  0  0  0  0  0  0  0  0
   -1.4019    3.0987   -0.7927 N   0  0  0  0  0  0  0  0  0  0  0  0
   -1.3488    2.3012   -0.1287 H   0  0  0  0  0  0  0  0  0  0  0  0
   -0.4129    3.4180   -0.8564 H   0  0  0  0  0  0  0  0  0  0  0  0
    0.8145    1.1571   -1.2588 O   0  0  0  0  0  0  0  0  0  0  0  0
    1.3438    3.4145   -0.5364 O   0  0  0  0  0  0  0  0  0  0  0  0
    1.7229    1.9945   -0.4309 S   0  0  0  0  0  0  0  0  0  0  0  0
    3.1528    1.7197   -0.6397 O   0  0  0  0  0  0  0  0  0  0  0  0
    1.4981    1.5304    1.0883 O   0  0  0  0  0  0  0  0  0  0  0  0
    0.5303    1.4227    1.2752 H   0  0  0  0  0  0  0  0  0  0  0  0
   -2.4925   -1.4294   -0.5121 H   0  0  0  0  0  0  0  0  0  0  0  0
    3.2783   -1.4152   -0.0005 H   0  0  0  0  0  0  0  0  0  0  0  0
    3.9202   -0.6978    0.4065 N   0  0  0  0  0  0  0  0  0  0  0  0
    5.2929   -0.9508   -0.0748 C   0  0  0  0  0  0  0  0  0  0  0  0
    3.7716   -0.6974    1.8793 C   0  0  0  0  0  0  0  0  0  0  0  0
   -2.2424    4.1375   -0.1615 C   0  0  0  0  0  0  0  0  0  0  0  0
   -1.8804    2.6213   -2.1066 C   0  0  0  0  0  0  0  0  0  0  0  0
   -1.1637    1.8865   -2.4698 H   0  0  0  0  0  0  0  0  0  0  0  0
   -1.9436    3.4667   -2.7939 H   0  0  0  0  0  0  0  0  0  0  0  0
   -2.8564    2.1547   -1.9720 H   0  0  0  0  0  0  0  0  0  0  0  0
   -1.8052    4.3934    0.8031 H   0  0  0  0  0  0  0  0  0  0  0  0
   -3.2450    3.7350   -0.0100 H   0  0  0  0  0  0  0  0  0  0  0  0
   -2.2796    5.0169   -0.8060 H   0  0  0  0  0  0  0  0  0  0  0  0
    2.7187   -0.5396    2.1061 H   0  0  0  0  0  0  0  0  0  0  0  0
    4.1014   -1.6610    2.2710 H   0  0  0  0  0  0  0  0  0  0  0  0
    4.3744    0.1100    2.2972 H   0  0  0  0  0  0  0  0  0  0  0  0
    5.9588   -0.1773    0.3105 H   0  0  0  0  0  0  0  0  0  0  0  0
    5.6214   -1.9327    0.2691 H   0  0  0  0  0  0  0  0  0  0  0  0
    5.2910   -0.9233   -1.1644 H   0  0  0  0  0  0  0  0  0  0  0  0
    0.8234   -2.2853   -0.3209 S   0  0  0  0  0  0  0  0  0  0  0  0
    2.2215   -2.5593   -0.6996 O   0  0  0  0  0  0  0  0  0  0  0  0
    0.7598   -1.4798    0.9272 O   0  0  0  0  0  0  0  0  0  0  0  0
   -0.0538   -3.4666   -0.3191 O   0  0  0  0  0  0  0  0  0  0  0  0
   -0.6910   -1.0928    1.5384 H   0  0  0  0  0  0  0  0  0  0  0  0
    0.1661   -1.3671   -1.4602 O   0  0  0  0  0  0  0  0  0  0  0  0
    0.4718   -0.4207   -1.3590 H   0  0  0  0  0  0  0  0  0  0  0  0
   -2.5953   -2.4555   -0.7029 N   0  0  0  0  0  0  0  0  0  0  0  0
   -2.8548   -2.6470   -2.1440 C   0  0  0  0  0  0  0  0  0  0  0  0
   -3.6418   -2.9847    0.1965 C   0  0  0  0  0  0  0  0  0  0  0  0
   -1.6762   -2.8946   -0.4771 H   0  0  0  0  0  0  0  0  0  0  0  0
   -3.7694   -2.1183   -2.4174 H   0  0  0  0  0  0  0  0  0  0  0  0
   -2.0040   -2.2444   -2.6934 H   0  0  0  0  0  0  0  0  0  0  0  0
   -2.9617   -3.7123   -2.3537 H   0  0  0  0  0  0  0  0  0  0  0  0
   -4.5842   -2.4774   -0.0145 H   0  0  0  0  0  0  0  0  0  0  0  0
   -3.7477   -4.0589    0.0375 H   0  0  0  0  0  0  0  0  0  0  0  0
   -3.3415   -2.7805    1.2243 H   0  0  0  0  0  0  0  0  0  0  0  0
  1  2  2  0  0  0  0
  1  5  1  0  0  0  0
  1  3  1  0  0  0  0
  4  1  2  0  0  0  0
  6 18  1  0  0  0  0
  7 21  1  0  0  0  0
  7  8  1  0  0  0  0
  9  7  1  0  0  0  0
 10 12  2  0  0  0  0
 11 12  1  0  0  0  0
 12 14  1  0  0  0  0
 13 12  2  0  0  0  0
 14 15  1  0  0  0  0
 17 18  1  0  0  0  0
 18 20  1  0  0  0  0
 19 33  1  0  0  0  0
 19 32  1  0  0  0  0
 19 18  1  0  0  0  0
 20 29  1  0  0  0  0
 20 30  1  0  0  0  0
 20 31  1  0  0  0  0
 21 27  1  0  0  0  0
 21 26  1  0  0  0  0
 22 25  1  0  0  0  0
 22  7  1  0  0  0  0
 23 22  1  0  0  0  0
 24 22  1  0  0  0  0
 28 21  1  0  0  0  0
 34 19  1  0  0  0  0
 35 38  2  0  0  0  0
 35 37  1  0  0  0  0
 36 35  2  0  0  0  0
 39  5  1  0  0  0  0
 40 41  1  0  0  0  0
 40 35  1  0  0  0  0
 42 16  1  0  0  0  0
 42 45  1  0  0  0  0
 42 44  1  0  0  0  0
 43 42  1  0  0  0  0
 44 51  1  0  0  0  0
 46 43  1  0  0  0  0
 47 43  1  0  0  0  0
 48 43  1  0  0  0  0
 49 44  1  0  0  0  0
 50 44  1  0  0  0  0
M  RAD  3   3   2  11   2  37   2
M  END
$$$$
