4sa_2dma.log
 OpenBabel02271919103D
Gaussian 09 # opt freq wB97XD/6-31++G(d,p)
 48 42  0  0  0  0  0  0  0  0999 V2000
    2.0332    1.8905    0.4971 S   0  0  0  0  0  0  0  0  0  0  0  0
    3.2986    1.9625    1.2399 O   0  0  0  0  0  0  0  0  0  0  0  0
    2.2131    1.1428   -0.7831 O   0  0  0  0  0  0  0  0  0  0  0  0
    1.7138    3.4003    0.1071 O   0  0  0  0  0  0  0  0  0  0  0  0
    4.2179    0.6226    0.6949 H   0  0  0  0  0  0  0  0  0  0  0  0
    0.8111    3.4556   -0.2812 H   0  0  0  0  0  0  0  0  0  0  0  0
    1.7226   -2.1235   -0.5891 S   0  0  0  0  0  0  0  0  0  0  0  0
    1.0172   -1.0006   -1.4083 O   0  0  0  0  0  0  0  0  0  0  0  0
    0.9404   -3.3285   -0.7944 O   0  0  0  0  0  0  0  0  0  0  0  0
    1.6363   -1.6362    0.9026 O   0  0  0  0  0  0  0  0  0  0  0  0
    1.4190   -0.0852   -1.1921 H   0  0  0  0  0  0  0  0  0  0  0  0
    4.7635   -0.1358    0.2250 N   0  0  0  0  0  0  0  0  0  0  0  0
    5.6480   -0.8003    1.2049 C   0  0  0  0  0  0  0  0  0  0  0  0
    6.3610   -0.0729    1.5951 H   0  0  0  0  0  0  0  0  0  0  0  0
    6.1757   -1.6197    0.7152 H   0  0  0  0  0  0  0  0  0  0  0  0
    5.0343   -1.1899    2.0168 H   0  0  0  0  0  0  0  0  0  0  0  0
    5.4579    0.4586   -0.9400 C   0  0  0  0  0  0  0  0  0  0  0  0
    6.1698    1.2058   -0.5872 H   0  0  0  0  0  0  0  0  0  0  0  0
    4.7047    0.9299   -1.5710 H   0  0  0  0  0  0  0  0  0  0  0  0
    5.9747   -0.3295   -1.4892 H   0  0  0  0  0  0  0  0  0  0  0  0
    0.6669   -1.4923    1.1472 H   0  0  0  0  0  0  0  0  0  0  0  0
    4.0786   -0.8274   -0.1307 H   0  0  0  0  0  0  0  0  0  0  0  0
    0.8973    1.3811    1.2868 O   0  0  0  0  0  0  0  0  0  0  0  0
    3.1514   -2.1669   -0.8768 O   0  0  0  0  0  0  0  0  0  0  0  0
   -2.0332   -1.8905    0.4971 S   0  0  0  0  0  0  0  0  0  0  0  0
   -3.2986   -1.9625    1.2399 O   0  0  0  0  0  0  0  0  0  0  0  0
   -2.2131   -1.1428   -0.7831 O   0  0  0  0  0  0  0  0  0  0  0  0
   -1.7138   -3.4003    0.1071 O   0  0  0  0  0  0  0  0  0  0  0  0
   -4.2179   -0.6226    0.6949 H   0  0  0  0  0  0  0  0  0  0  0  0
   -0.8111   -3.4556   -0.2812 H   0  0  0  0  0  0  0  0  0  0  0  0
   -1.7226    2.1235   -0.5891 S   0  0  0  0  0  0  0  0  0  0  0  0
   -1.0172    1.0006   -1.4083 O   0  0  0  0  0  0  0  0  0  0  0  0
   -0.9404    3.3285   -0.7944 O   0  0  0  0  0  0  0  0  0  0  0  0
   -1.6363    1.6362    0.9026 O   0  0  0  0  0  0  0  0  0  0  0  0
   -1.4190    0.0852   -1.1921 H   0  0  0  0  0  0  0  0  0  0  0  0
   -4.7634    0.1358    0.2250 N   0  0  0  0  0  0  0  0  0  0  0  0
   -5.6481    0.8003    1.2049 C   0  0  0  0  0  0  0  0  0  0  0  0
   -6.3610    0.0729    1.5951 H   0  0  0  0  0  0  0  0  0  0  0  0
   -6.1757    1.6197    0.7152 H   0  0  0  0  0  0  0  0  0  0  0  0
   -5.0343    1.1899    2.0168 H   0  0  0  0  0  0  0  0  0  0  0  0
   -5.4579   -0.4586   -0.9400 C   0  0  0  0  0  0  0  0  0  0  0  0
   -6.1697   -1.2058   -0.5873 H   0  0  0  0  0  0  0  0  0  0  0  0
   -4.7047   -0.9299   -1.5710 H   0  0  0  0  0  0  0  0  0  0  0  0
   -5.9747    0.3294   -1.4892 H   0  0  0  0  0  0  0  0  0  0  0  0
   -0.6669    1.4923    1.1472 H   0  0  0  0  0  0  0  0  0  0  0  0
   -4.0786    0.8274   -0.1307 H   0  0  0  0  0  0  0  0  0  0  0  0
   -0.8973   -1.3811    1.2868 O   0  0  0  0  0  0  0  0  0  0  0  0
   -3.1514    2.1669   -0.8768 O   0  0  0  0  0  0  0  0  0  0  0  0
  1  2  2  0  0  0  0
  1 23  1  0  0  0  0
  3  1  2  0  0  0  0
  4  1  1  0  0  0  0
  6  4  1  0  0  0  0
  7 10  1  0  0  0  0
  8 11  1  0  0  0  0
  8  7  1  0  0  0  0
  9  7  2  0  0  0  0
 10 21  1  0  0  0  0
 12  5  1  0  0  0  0
 12 13  1  0  0  0  0
 13 14  1  0  0  0  0
 13 16  1  0  0  0  0
 15 13  1  0  0  0  0
 17 18  1  0  0  0  0
 17 12  1  0  0  0  0
 19 17  1  0  0  0  0
 20 17  1  0  0  0  0
 22 12  1  0  0  0  0
 24  7  2  0  0  0  0
 25 26  2  0  0  0  0
 25 47  1  0  0  0  0
 27 25  2  0  0  0  0
 28 25  1  0  0  0  0
 30 28  1  0  0  0  0
 31 34  1  0  0  0  0
 32 35  1  0  0  0  0
 32 31  1  0  0  0  0
 33 31  2  0  0  0  0
 34 45  1  0  0  0  0
 36 29  1  0  0  0  0
 36 37  1  0  0  0  0
 37 38  1  0  0  0  0
 37 40  1  0  0  0  0
 39 37  1  0  0  0  0
 41 42  1  0  0  0  0
 41 36  1  0  0  0  0
 43 41  1  0  0  0  0
 44 41  1  0  0  0  0
 46 36  1  0  0  0  0
 48 31  2  0  0  0  0
M  RAD  2  23   2  47   2
M  END
$$$$
