14
2sa
S       -2.07695200       0.06785200       0.12471600
O       -1.44151800       0.94244300      -1.01660800
O       -1.09806200      -0.15142500       1.17652600
O       -2.23082100      -1.37526000      -0.55732000
O       -3.37053100       0.61207700       0.41581700
H       -0.48223800       0.70992700      -1.13729300
H       -2.98728900      -1.37118500      -1.16294800
S        2.07691500      -0.06789000      -0.12471300
O        2.23128300       1.37525700       0.55713600
O        1.09791600       0.15159200      -1.17638100
O        1.44143100      -0.94218300       1.01681000
O        3.37029300      -0.61248900      -0.41600600
H        2.98789300       1.37104300       1.16258300
H        0.48228700      -0.70927700       1.13781200
21
3sa
S        0.20372300       1.35245700      -0.06329200
O       -0.08328300       0.05280600      -0.70313000
O        1.37043900       2.04489600      -0.56096700
H        3.04134500       1.21771700      -0.60817200
O        0.29511800       1.12617300       1.48722700
O       -1.02083000       2.28748300      -0.16866700
O        3.76313800       0.55307600      -0.58177700
S        3.26500500      -0.78885800       0.09756900
O        4.39800400      -1.64272800       0.24492900
O        2.31122700      -1.43506500      -0.99728300
O       -2.48004700      -1.13442700      -1.13425800
H        1.42613200      -1.01228500      -0.97816600
H       -1.57908500      -0.73718400      -1.03646600
O        2.43745000      -0.43727700       1.25160100
O       -3.18352800       0.86100800       0.14564600
H        1.07902100       0.53655400       1.64621200
H       -1.87961500       1.79085400      -0.01778700
O       -4.77152500      -1.02790200      -0.33906500
S       -3.45388000      -0.55622400      -0.03886800
O       -2.91963100      -1.22137800       1.31524900
H       -3.25761900      -2.12697500       1.39178800
28
4sa
S        1.88276000      -0.81679700       0.78696400
O        3.17048100      -1.19892000       1.33192700
O        0.68264800      -1.22334300       1.49285900
O        1.78639000       0.74080500       0.64086200
H        2.65471200       1.11617500       0.33030700
O        1.86282000      -1.36436100      -0.68408800
H        0.94817400      -1.30053300      -1.06639400
S        5.48462600       0.89608800      -0.20864600
O        6.71041200       1.63680800      -0.25365500
O        4.20124200       1.56604800      -0.08745500
O        5.62838000      -0.18475700       0.92627400
O        5.32718100       0.01445000      -1.53780200
H        6.19421400      -0.32121700      -1.81153300
H        4.75480500      -0.61598700       1.11017100
S       -1.88360200      -0.82000900      -0.78514300
O       -3.17145900      -1.20367400      -1.32869200
O       -0.68366400      -1.22983100      -1.48942600
O       -1.86391800      -1.36194100       0.68802500
O       -1.78650600       0.73809200      -0.64498400
H       -0.94925300      -1.29695800       1.07008200
H       -2.65465900       1.11516400      -0.33602700
S       -5.48397700       0.89713400       0.20635400
O       -5.62935200      -0.18940400      -0.92283500
O       -5.32322800       0.02227300       1.53960000
O       -4.20125600       1.56725300       0.07930100
O       -6.71011300       1.63734900       0.25017000
H       -6.18942200      -0.31287100       1.81659100
H       -4.75595700      -0.62118400      -1.10629400
35
5sa
S        0.00004300      -0.00431700       1.29143300
O        1.24455800       0.06432200       2.03229800
O       -1.24415800      -0.07745000       2.03241200
O       -0.14250900       1.23438600       0.33990700
H        0.73185800       1.45784900      -0.07631400
O        0.14217800      -1.23717900       0.33230400
H       -0.73245200      -1.45832300      -0.08462200
S        3.58716800       1.12180600      -0.27672200
O        4.80492800       1.82542000      -0.62683800
O        2.31323100       1.74575500      -0.57891300
O        3.69629400       0.82094200       1.26090400
O        3.54716500      -0.28687400      -0.96225500
H        4.45143400      -0.70349300      -0.95308200
H        2.82883200       0.48942400       1.61189400
S       -3.58767300      -1.12068800      -0.28210000
O       -4.80584300      -1.82182200      -0.63572100
O       -2.31411600      -1.74380200      -0.58757800
O       -3.69652000      -0.82761400       1.25704100
O       -3.54694500       0.29145000      -0.96044600
H       -2.82875600      -0.49867200       1.60973300
H       -4.45103500       0.70841900      -0.94935900
S       -7.29171700       0.60572700      -0.45681000
O       -7.33675200      -0.92037300      -0.84028900
O       -7.12581000       0.57836300       1.13707900
O       -6.04539100       1.19047200      -0.92114300
O       -8.55831700       1.17480800      -0.80922900
H       -7.97852700       0.37573000       1.55083800
H       -6.43439600      -1.32388500      -0.76636200
S        7.29216300      -0.60208000      -0.45973400
O        7.33631300       0.92598300      -0.83535000
O        7.12680900      -0.58310100       1.13431900
O        6.04594700      -1.18500900      -0.92664900
O        8.55893300      -1.16871400      -0.81548200
H        6.43370700       1.32858000      -0.75959300
H        7.97964100      -0.38250000       1.54882700
