68
4sa1am3eda-25
S        3.91618200      -0.57645200       1.32048800
O        4.75888700      -0.24779300       0.13997700
O        2.57147800      -1.04591900       0.81867800
O        4.51469200      -1.45674500       2.30058900
O        3.61180600       0.78138100       2.09966500
H        3.15894500       1.47112500       1.53602900
S       -3.81462300       0.44712900       1.06925400
O       -4.08890000       0.44487400      -0.41956800
O       -4.56478500       1.48446900       1.77061400
O       -4.04253200      -0.95136900       1.58099400
O       -2.29582700       0.72001000       1.21270500
S       -0.94370000      -2.46627400      -1.14877100
O        0.04810300      -3.30012900      -1.90168600
O       -0.23121400      -1.31429700      -0.50751500
O       -2.00457000      -1.94635600      -2.09199600
O       -1.63092700      -3.28564500      -0.08272300
S        1.38405600       2.78750000      -0.32144600
O        0.58181900       1.55891200      -0.67323800
O        0.46890900       3.97254600      -0.29784700
O        1.97891800       2.56690200       1.04942900
O        2.46858200       2.96947800      -1.33535600
N       -4.29289300      -2.41235000      -0.69903100
H       -5.15296300      -2.11493900      -1.15114800
H       -4.20780100      -1.90091500       0.22245600
H       -4.27930100      -3.41769700      -0.54729300
H       -3.45691500      -2.17028400      -1.29813100
C        2.35483200      -0.31110000      -2.47834300
C        2.85724000      -1.75083500      -2.59807000
N        2.50746400      -2.55507100      -1.39856500
N        3.41531000       0.62401300      -2.02573800
H        3.00967600       1.59428600      -1.78148400
H        4.12786600       0.75889700      -2.74083400
H        1.99568400       0.04327400      -3.44608300
H        1.52674100      -0.23487900      -1.76604900
H        3.94179400      -1.77596500      -2.73593000
H        2.38973300      -2.23893700      -3.45507800
H        2.56651100      -1.99082400      -0.50842700
H        3.11496800      -3.36605000      -1.30521200
H        3.91172100       0.28174900      -1.15937100
H        1.49518100      -2.89963700      -1.50853400
C        0.40517300      -0.41701100       3.00094000
N        0.43440500       0.40978800       1.77790300
C       -0.07125300      -1.82015500       2.66013500
N       -1.46169100      -1.82691100       2.13214700
H        0.95170200       1.30622100       1.86698500
H       -0.50972000       0.62622900       1.43044900
H        1.42128300      -0.46955600       3.39556600
H       -0.24113600       0.07222400       3.73415400
H       -0.02155100      -2.45933700       3.54258800
H        0.57640500      -2.23723300       1.88714700
H       -2.17894100      -1.99061900       2.83669400
H       -1.56939400      -2.52553300       1.33742100
H       -1.73148200      -0.91895100       1.69970300
H        0.93155200      -0.08891900       1.02274400
C       -1.90430700       2.17635800      -2.30519500
N       -1.82287600       0.79814000      -1.77348700
C       -2.66286500       3.10175000      -1.35857200
N       -2.02765700       3.19257900      -0.01696900
H       -1.00623700       0.70733600      -1.14502000
H       -1.71765400       0.05325200      -2.47012900
H       -0.88739300       2.53499300      -2.47380400
H       -2.44556800       2.15778300      -3.25330700
H       -3.68684200       2.74886000      -1.21733500
H       -2.67328800       4.10371100      -1.79201600
H       -2.05378700       2.26690900       0.47883700
H       -2.55518100       3.83421500       0.57346000
H       -1.00901000       3.53368000      -0.08786600
H       -2.69911700       0.54717000      -1.23457200
68
4sa1am3eda-20
S       -4.37631600      -1.72329600       0.41165000
O       -4.22154600      -0.25331800       0.47802400
O       -4.30890800      -2.23918700      -0.96646700
O       -3.52729200      -2.42304500       1.38971700
O       -5.86234500      -2.06969000       0.94358300
H       -6.49802100      -1.81217500       0.26171000
S       -2.50951900       2.07303100      -1.30550700
O       -1.49270900       0.95220700      -1.23025900
O       -2.70138200       2.66495300       0.03428300
O       -2.22975700       3.00326400      -2.38549700
O       -3.87296100       1.33063700      -1.69212200
H       -4.13444200       0.76658500      -0.92119500
S        2.71862500       1.24253300       2.13441100
O        1.49134400       2.02703100       2.39867800
O        3.13742000       1.38679100       0.69367100
O        3.79831800       1.41090400       3.08240200
O        2.28998700      -0.31488900       2.24002300
H        1.74611400      -0.54810500       1.43236100
S        1.16158800      -1.87314500      -0.85229000
O        1.52462400      -1.11483100      -2.08321300
O        0.00310000      -2.78177000      -1.07115200
O        2.33221200      -2.60344700      -0.29017300
O        0.71423100      -0.83791500       0.21844000
N       -1.99838900      -1.49978200      -2.37343200
H       -2.00593200      -1.55137800      -3.38740500
H       -1.83753100      -0.51583900      -2.06430600
H       -2.90260500      -1.82110900      -1.98109300
H       -1.21906900      -2.08234400      -1.97405600
C        1.40346200       2.88067800      -2.01565700
N        1.23811700       1.54795500      -1.39200600
C        1.38128000       3.93678600      -0.91239200
N        0.20165700       3.75042300      -0.07832900
H        1.43893700       0.72794700      -1.98637100
H        0.25075400       1.42543400      -1.11173800
H        2.35050900       2.90527200      -2.55962700
H        0.57801200       3.02144900      -2.71852800
H        1.45421000       4.92823400      -1.38073300
H        2.26595800       3.80016800      -0.28231300
H       -0.63126300       4.16014400      -0.48972500
H        0.33870600       4.14868100       0.84259400
H        1.84116100       1.45886400      -0.55206600
C        5.49956600      -2.22960600      -1.86698500
N        6.60302400      -2.45606700      -0.93320200
C        4.82676900      -0.90309000      -1.53295400
N        4.43626800      -0.92795100      -0.10357800
H        7.45460400      -1.99498800      -1.23426300
H        6.80845300      -3.44124400      -0.82313900
H        5.79867600      -2.22215200      -2.92279800
H        4.76178500      -3.02747700      -1.73906400
H        3.91744200      -0.76530100      -2.12235000
H        5.50492400      -0.05901100      -1.68779400
H        3.64756700      -1.61761600       0.00125600
H        4.09119200      -0.00404300       0.23305400
H        5.23867800      -1.24544500       0.44789800
C       -1.71598500       0.42526600       2.57164800
C       -0.98758900      -0.81753800       3.06267700
N       -0.95013100      -1.88288200       2.02176300
N       -0.96273400       1.16695700       1.53509200
H       -1.54914700       1.93273200       1.13870600
H       -0.76055000       0.58429500       0.71084700
H       -2.69690600       0.17956500       2.15402300
H       -1.85769900       1.09842800       3.41887800
H       -1.52179000      -1.21255600       3.92849400
H        0.04350300      -0.58932800       3.34724900
H       -1.91596800      -2.11906100       1.69040800
H       -0.52670300      -2.73593900       2.38439800
H       -0.05064500       1.54861600       1.87525300
H       -0.34736800      -1.57438400       1.20751900
68
4sa1am3eda-41
S       -3.22823600      -1.85607100       1.06237000
O       -3.13416200      -2.51764700      -0.39183700
O       -4.61061800      -1.32599400       1.10320200
O       -2.26632200      -0.69823500       1.00179800
O       -2.86626800      -2.83668100       2.07169800
H       -3.21945600       1.48449200       0.70968800
H       -2.17320600      -2.70083800      -0.61975400
S        3.07407100       1.98922300       0.88080600
O        3.47200800       0.85489700       1.70972900
O        3.64723800       1.96610800      -0.48401300
O        1.61033300       2.22919900       0.87147800
O        3.62717400       3.33717000       1.58671800
H        4.59080000       3.28086500       1.65010700
S       -1.38115600       3.26382900      -0.15410900
O       -1.55704100       2.08113700       0.73615700
O       -0.91562200       2.79423100      -1.50425100
O       -2.55562200       4.12152200      -0.22434300
O       -0.20953000       4.14478900       0.45149700
H        0.56209000       3.55878900       0.65191900
S        0.29342700      -1.99248700      -1.79743300
O        0.91872500      -0.87244600      -0.94939500
O       -0.58935500      -2.78878600      -0.87815400
O       -0.49758300      -1.35651000      -2.88885200
O        1.40331300      -2.83793900      -2.31077200
H        2.38720300      -3.06646700      -0.98907500
N        1.43686400       1.46690800      -2.14952200
H        1.23753600       0.50880600      -1.74497400
H        0.64561400       2.09173100      -1.89458100
H        2.31395600       1.80591100      -1.71786000
H        1.52253800       1.40184600      -3.15989300
N        2.93769800      -3.15414600      -0.08887700
C        3.85435100      -1.99507200       0.08973700
C        4.56483600      -1.65362600      -1.21393700
N        5.50744800      -0.57389700      -0.96496800
H        2.22061200      -3.19978200       0.69252100
H        3.44996300      -4.03317000      -0.12593600
H        4.57654900      -2.22626400       0.87546900
H        3.24978300      -1.15064300       0.42261900
H        3.80054900      -1.43441200      -1.97576300
H        5.12492600      -2.53076700      -1.56256600
H        5.01565200       0.29638700      -0.77161700
H        6.09868600      -0.42054700      -1.77319900
C        0.43715700      -2.36793300       2.88070100
C        0.97737000      -0.95351200       2.73959700
N        0.32672400      -0.22260700       1.62557400
N        0.73697800      -3.20298800       1.70709400
H        0.09749800      -2.98241700       0.93468600
H        0.51139800      -4.16695400       1.93959500
H        0.92563600      -2.80913300       3.75457900
H       -0.64237800      -2.33941600       3.07924900
H        2.05331800      -0.93789800       2.55498900
H        0.78330500      -0.39497600       3.65809500
H        0.58936200      -0.59985800       0.68603700
H        0.59845800       0.77005900       1.59568800
H       -0.70622500      -0.29321100       1.65403300
C       -4.35999000       1.45470100      -1.05175500
N       -4.21248300       1.30751400       0.42564600
C       -3.66857500       0.34367100      -1.83408400
N       -2.20918100       0.29176900      -1.59605200
H       -4.47965500       0.34152100       0.75230100
H       -4.78037900       2.00598900       0.90265900
H       -5.42572500       1.42098200      -1.28582600
H       -3.97031300       2.44177100      -1.31449100
H       -3.83748600       0.52840000      -2.89675600
H       -4.07372300      -0.63879800      -1.58219400
H       -1.75192000       1.21696800      -1.70874600
H       -1.70564900      -0.39316900      -2.21664300
H       -2.03156200      -0.02348000      -0.61956100
