33
2sa1ma1eda-31
S       -0.78951200       1.83595900      -0.30203000
O       -0.64974200       0.94622900       0.89621900
O       -2.12068600       2.37826400      -0.50015000
O        0.33493700       2.80363100      -0.31711300
O       -0.57104200       0.85482400      -1.56753500
H        0.30468700       0.40378300      -1.48268200
H        1.50816100       2.15184600       0.62612500
S        1.81252800      -1.54623000      -0.12660200
O        0.67199800      -2.47377100      -0.24209200
O        1.76755900      -0.44376700      -1.11496300
O        2.10784000      -1.08223500       1.23583500
O        3.12600200      -2.42210000      -0.50032000
H        2.96203900      -2.86852600      -1.34221400
N        2.27731600       1.69383300       1.18845000
H        2.04336900       0.68416100       1.29067400
H        2.28263600       2.11386300       2.11505100
C        3.57934100       1.83279500       0.49767700
H        3.48538100       1.34638300      -0.47268900
H        3.80974700       2.88989900       0.36699900
H        4.35686800       1.34000800       1.08102000
C       -3.93615600      -0.56620000      -0.09693100
N       -4.47602300      -1.16671800       1.12625100
C       -2.72115600      -1.36671300      -0.55228400
N       -1.77281300      -1.46189400       0.58598800
H       -5.14491200      -1.90104900       0.92214400
H       -4.94440400      -0.47837100       1.70245700
H       -4.65550900      -0.51690700      -0.92348600
H       -3.62003000       0.46042500       0.11311300
H       -2.20620800      -0.87304100      -1.37762900
H       -2.99593600      -2.38353100      -0.84690900
H       -1.38167900      -0.50317500       0.80109000
H       -0.94841200      -2.04937200       0.36742300
H       -2.29052000      -1.79649600       1.40299000
33
2sa1ma1eda-32
S       -0.80214300       1.84367200      -0.27157000
O       -0.65434000       0.94057300       0.91518300
O       -2.13252600       2.39381500      -0.45145800
O        0.32644300       2.80630400      -0.28907500
O       -0.60110600       0.87459100      -1.55037800
H        0.27290600       0.42125500      -1.47999300
H        1.51366700       2.14127300       0.62386400
S        1.81695000      -1.54166200      -0.13450100
O        2.15446800      -1.08530500       1.22979500
O        0.68754600      -2.48966700      -0.16826600
O        1.74117200      -0.43529500      -1.10271700
O        3.09788000      -2.38262100      -0.67005800
H        3.12341400      -3.22509900      -0.19653300
N        2.30467700       1.69198900       1.16273600
H        2.08652400       0.67962400       1.27752600
H        2.33692600       2.11760100       2.08622500
C        3.58060000       1.84377800       0.42688200
H        3.46123900       1.34849200      -0.53617800
H        3.79067500       2.90304300       0.28053400
H        4.38479500       1.36737800       0.98728500
C       -3.92833300      -0.58565800      -0.13915700
N       -4.48693300      -1.17244800       1.08246100
C       -2.70405700      -1.38839700      -0.56472400
N       -1.77431600      -1.46651800       0.59008300
H       -5.15299700      -1.90873300       0.87620600
H       -4.96395100      -0.47736100       1.64331900
H       -4.63434400      -0.54873900      -0.97774000
H       -3.61866300       0.44446400       0.06374900
H       -2.17778500      -0.90301100      -1.38764700
H       -2.97090300      -2.40962400      -0.85113700
H       -1.39028100      -0.50451400       0.80423800
H       -0.94304300      -2.05210800       0.39274700
H       -2.30465100      -1.79474600       1.40149600
33
2sa1ma1eda-39
S        1.03603400       1.66639000      -0.23744300
O        0.75180900       0.80081800       0.95113900
O        2.43536400       2.03348100      -0.39382600
O        0.74472300       0.71252300      -1.50904000
O        0.05233800       2.77202400      -0.29091200
H       -1.24531800       2.25520100       0.61220800
H       -0.18546300       0.37747900      -1.46044200
S       -1.99319700      -1.39026500      -0.16173800
O       -1.73164600      -0.30855900      -1.14226400
O       -1.02167100      -2.49320400      -0.24099600
O       -2.25992800      -0.87535700       1.18886900
O       -3.42210700      -2.03196400      -0.58753500
H       -3.29638000      -2.53202200      -1.40543800
N       -2.08288800       1.88786300       1.13550700
H       -2.08096400       2.30358600       2.06413700
H       -1.97326100       0.85611900       1.24116700
C       -3.32979500       2.17611900       0.39039700
H       -3.43350500       3.25282200       0.25806400
H       -3.25010000       1.68378600      -0.57828200
H       -4.18169100       1.77242200       0.93702000
C        3.83410400      -0.95137200       0.78475100
N        3.96549200      -0.62600000      -0.63135300
C        2.79028500      -2.06398600       0.95352100
N        1.59232500      -1.64698800       0.19384500
H        4.87320400      -0.85450400      -1.01160000
H        3.75528800       0.35300200      -0.81008700
H        4.77619400      -1.28243700       1.23373900
H        3.49765400      -0.06785900       1.33755100
H        2.51186600      -2.21203200       1.99885300
H        3.14758600      -3.00859600       0.53597500
H        1.20435700      -0.75270700       0.59195200
H        0.80671400      -2.30979100       0.13618300
H        1.90529200      -1.39924900      -0.75559000
