38
1sa1msa1nta1ma1dma-1
N       -2.73407400       1.70070900       0.36372600
C       -3.82687400       2.02255200      -0.57486200
C       -2.82354700       2.36585800       1.67974000
H       -2.72300000       0.66631900       0.50028900
H       -3.83286200       3.09626900      -0.76830700
H       -3.64625800       1.47956600      -1.50264700
H       -4.77857600       1.71304800      -0.14036900
H       -2.84274400       3.44699600       1.53445400
H       -3.73097300       2.03820300       2.18936700
H       -1.93972700       2.08701500       2.25357700
N        1.09185400      -1.58326400       1.32284100
H        1.90310100      -1.53696900       0.69929600
C        1.42423700      -2.25024100       2.59695700
H        2.25709300      -1.72852200       3.06759700
H        0.55046300      -2.22186100       3.24748700
H        1.70037200      -3.28622500       2.40257900
H        0.79487500      -0.59140100       1.45829100
N        4.32721000      -0.26709200      -0.48984500
O        3.61426500      -0.63235600       0.44293500
O        5.21315900      -0.90197500      -0.99963600
O        4.12048800       0.95379800      -0.98529800
H        3.30024300       1.34588700      -0.53138900
S       -2.15350400      -1.67661500      -0.48138500
O       -3.00208400      -1.04204600       0.56171100
O       -1.12296800      -2.58971800       0.06931600
O       -1.59002900      -0.65178600      -1.40843500
H       -0.04854200      -0.05785800      -1.26343800
C       -3.22770500      -2.69928600      -1.46658400
H       -3.99924000      -2.06413400      -1.90179500
H       -2.62698500      -3.16766600      -2.24611700
H       -3.66888000      -3.45142600      -0.81245100
S        0.68948400       1.57024300      -0.05656000
O        0.85142800       0.31454100      -1.04532100
O        2.05389800       2.11157500       0.01772800
O       -0.30561700       2.48403600      -0.64656900
O        0.19353800       1.00774400       1.22858500
H       -1.82205500       1.96331400      -0.07481700
H        0.29778600      -2.04487600       0.82683800
38
1sa1msa1nta1ma1dma-2
N       -1.85272800       2.37219700       0.65964200
C       -2.93578200       3.31672600       0.32224500
C       -1.17861700       2.64446400       1.94691200
H       -2.25007400       1.40265400       0.68449000
H       -2.52492800       4.32429200       0.24179500
H       -3.37160700       3.02027900      -0.63164800
H       -3.69970900       3.28299800       1.10022800
H       -0.74846100       3.64699600       1.92258600
H       -1.90656300       2.56512800       2.75573700
H       -0.38662600       1.90635400       2.06899800
N        0.75401500      -2.15045800       0.60733100
H        1.44135700      -2.41157300       1.31155000
C        0.94881700      -2.91598500      -0.64736300
H        0.90027100      -3.98221000      -0.42615800
H        0.15042800      -2.64118100      -1.33421000
H        1.91493500      -2.65532300      -1.07555800
H       -0.22170600      -2.27179800       0.95745600
N        4.22463400      -0.39964500       0.74934700
O        3.36704500      -1.20252100       0.39845400
O        5.06677300      -0.57448000       1.59337700
O        4.24504000       0.79197300       0.14399600
H        3.44915800       0.84805000      -0.48446300
S       -2.67304800      -1.29850700       0.15924000
O       -3.10147800      -0.02145600       0.78891600
O       -1.92799400      -2.18477800       1.08994700
O       -1.96025300      -1.09149400      -1.12983500
H       -0.58243600      -0.33265900      -1.72247800
C       -4.17537900      -2.16636800      -0.24372500
H       -4.76002800      -1.54160100      -0.91881800
H       -3.90541300      -3.10687400      -0.72376100
H       -4.71654100      -2.34744600       0.68497000
S        0.87646800       1.09529400      -1.06628700
O        2.28434900       1.23040500      -1.46519300
O        0.31852700      -0.04966300      -2.02994700
O        0.69506600       0.57798900       0.31927400
O        0.06300900       2.30674100      -1.28738300
H        0.86341800      -1.12222500       0.44991100
H       -1.13653200       2.37814100      -0.10338000
38
1sa1msa1nta1ma1dma-3
N        0.48452800      -2.07527900       0.21059500
C        0.79226900      -2.75957800       1.48434000
C        0.98419100      -2.77543100      -0.99456900
H       -0.55171700      -1.96485900       0.13556200
H        1.87404900      -2.82955500       1.59820000
H        0.36666500      -2.17801300       2.30217200
H        0.34037300      -3.75229100       1.47083200
H        2.06056100      -2.91453900      -0.90346900
H        0.47751300      -3.73836700      -1.07515300
H        0.76132500      -2.15457200      -1.86164400
N       -1.49656900       2.17147900       1.16785300
H       -2.24565400       1.47811100       1.38061800
C       -1.43303800       3.31084700       2.10314500
H       -1.24580700       2.93531000       3.10867700
H       -0.62432400       3.97446200       1.79828300
H       -2.38094900       3.84809200       2.08472300
H       -0.60534700       1.63537300       1.12629400
N        4.06123800      -0.29157600       0.60959700
O        3.24432700      -1.12465100       0.23618500
O        4.86694700      -0.42536600       1.49632900
O        4.08161200       0.88631000      -0.02318900
H        3.29862500       0.91122600      -0.66890500
S       -3.03090000      -0.66135200       0.06215400
O       -3.17655400      -0.00018500       1.38528500
O       -2.24143300      -1.91789300       0.11494500
O       -2.52065600       0.29244800      -0.96511000
H       -1.01636800       0.20302700      -1.69100900
C       -4.66746100      -1.13465500      -0.45391000
H       -5.06664600      -1.82722300       0.28718700
H       -5.27806900      -0.23373700      -0.51237600
H       -4.58846100      -1.61362200      -1.42976300
S        0.74434100       1.25719200      -1.08860500
O        2.10349800       1.20411200      -1.64755200
O       -0.05796500       0.17844800      -1.96222100
O        0.70387400       0.72565300       0.31903100
O        0.04204300       2.53631900      -1.19286100
H        0.85535400      -1.10743400       0.24171200
H       -1.61188000       2.47416700       0.19418600
