4sa_1b_2a.sdf 
 OpenBabel09072015433D
Besel et al., Gaussian 16, # opt freq 6-31++g(d,p) wb97xd
 42 35  0  0  0  0  0  0  0  0999 V2000
   -1.8546    0.6353   -1.9018 N   0  0  0  0  0  0  0  0  0  0  0  0
   -1.5549    1.0063   -0.9711 H   0  0  0  0  0  0  0  0  0  0  0  0
   -2.8282    0.2962   -1.8054 H   0  0  0  0  0  0  0  0  0  0  0  0
   -1.7770    1.3633   -2.6057 H   0  0  0  0  0  0  0  0  0  0  0  0
   -1.2098   -0.1476   -2.1203 H   0  0  0  0  0  0  0  0  0  0  0  0
    1.7102    0.4232    2.1640 N   0  0  0  0  0  0  0  0  0  0  0  0
    2.1667    0.7601    3.0073 H   0  0  0  0  0  0  0  0  0  0  0  0
    1.7297    1.1762    1.4559 H   0  0  0  0  0  0  0  0  0  0  0  0
    2.2419   -0.3847    1.8082 H   0  0  0  0  0  0  0  0  0  0  0  0
    0.7108    0.1809    2.3785 H   0  0  0  0  0  0  0  0  0  0  0  0
   -1.7684    0.2765    1.5463 S   0  0  0  0  0  0  0  0  0  0  0  0
   -1.0679    1.2740    0.6366 O   0  0  0  0  0  0  0  0  0  0  0  0
   -0.9214    0.0289    2.7332 O   0  0  0  0  0  0  0  0  0  0  0  0
   -1.8701   -0.9938    0.6964 O   0  0  0  0  0  0  0  0  0  0  0  0
   -3.1288    0.7454    1.8908 O   0  0  0  0  0  0  0  0  0  0  0  0
   -4.5097    0.2684    1.2959 H   0  0  0  0  0  0  0  0  0  0  0  0
   -0.4588   -1.5991    0.3583 H   0  0  0  0  0  0  0  0  0  0  0  0
    4.7699   -1.2775    0.4247 S   0  0  0  0  0  0  0  0  0  0  0  0
    3.7636   -1.3846    1.4802 O   0  0  0  0  0  0  0  0  0  0  0  0
    6.1586   -1.1652    0.7724 O   0  0  0  0  0  0  0  0  0  0  0  0
    4.3963   -0.0334   -0.4792 O   0  0  0  0  0  0  0  0  0  0  0  0
    4.6187   -2.5107   -0.5416 O   0  0  0  0  0  0  0  0  0  0  0  0
    3.6712   -2.5814   -0.8594 H   0  0  0  0  0  0  0  0  0  0  0  0
    3.4128   -0.0157   -0.6501 H   0  0  0  0  0  0  0  0  0  0  0  0
    1.1158    3.2895   -0.5278 S   0  0  0  0  0  0  0  0  0  0  0  0
    1.9787    2.6901    0.4892 O   0  0  0  0  0  0  0  0  0  0  0  0
    1.5502    4.4732   -1.2166 O   0  0  0  0  0  0  0  0  0  0  0  0
    0.7879    2.1606   -1.5943 O   0  0  0  0  0  0  0  0  0  0  0  0
   -0.2906    3.6113    0.0955 O   0  0  0  0  0  0  0  0  0  0  0  0
   -0.6859    2.7695    0.4909 H   0  0  0  0  0  0  0  0  0  0  0  0
    1.1431    1.2672   -1.2918 H   0  0  0  0  0  0  0  0  0  0  0  0
   -5.1388   -0.9716   -0.3504 S   0  0  0  0  0  0  0  0  0  0  0  0
   -5.3789   -0.1003    0.9348 O   0  0  0  0  0  0  0  0  0  0  0  0
   -6.3848   -1.5976   -0.6977 O   0  0  0  0  0  0  0  0  0  0  0  0
   -4.4665   -0.1452   -1.3584 O   0  0  0  0  0  0  0  0  0  0  0  0
   -4.1414   -2.0933    0.1227 O   0  0  0  0  0  0  0  0  0  0  0  0
   -3.2412   -1.7003    0.3650 H   0  0  0  0  0  0  0  0  0  0  0  0
    1.1264   -1.4742   -1.1377 S   0  0  0  0  0  0  0  0  0  0  0  0
    0.0715   -1.3371   -2.1490 O   0  0  0  0  0  0  0  0  0  0  0  0
    2.1576   -2.4690   -1.4496 O   0  0  0  0  0  0  0  0  0  0  0  0
    1.7567   -0.1323   -0.8253 O   0  0  0  0  0  0  0  0  0  0  0  0
    0.4757   -1.9647    0.2132 O   0  0  0  0  0  0  0  0  0  0  0  0
  1  3  1  0  0  0  0
  1  2  1  0  0  0  0
  4  1  1  0  0  0  0
  5  1  1  0  0  0  0
  6 10  1  0  0  0  0
  6  7  1  0  0  0  0
  8  6  1  0  0  0  0
  9  6  1  0  0  0  0
 11 15  1  0  0  0  0
 11 13  1  0  0  0  0
 12 11  2  0  0  0  0
 14 11  2  0  0  0  0
 18 20  2  0  0  0  0
 18 19  2  0  0  0  0
 21 18  1  0  0  0  0
 22 18  1  0  0  0  0
 23 22  1  0  0  0  0
 24 21  1  0  0  0  0
 25 29  1  0  0  0  0
 25 26  2  0  0  0  0
 27 25  2  0  0  0  0
 28 31  1  0  0  0  0
 28 25  1  0  0  0  0
 29 30  1  0  0  0  0
 32 36  1  0  0  0  0
 32 33  1  0  0  0  0
 33 16  1  0  0  0  0
 34 32  2  0  0  0  0
 35 32  2  0  0  0  0
 36 37  1  0  0  0  0
 38 41  1  0  0  0  0
 38 42  1  0  0  0  0
 39 38  2  0  0  0  0
 40 38  2  0  0  0  0
 42 17  1  0  0  0  0
M  RAD  3  13   2  15   2  41   2
M  END
$$$$
