4sa_1b_5a.sdf 
 OpenBabel09072015433D
Besel et al., Gaussian 16, # opt freq 6-31++g(d,p) wb97xd
 54 44  0  0  0  0  0  0  0  0999 V2000
    2.9681    0.5685   -2.2217 N   0  0  0  0  0  0  0  0  0  0  0  0
    3.3282    0.7844   -1.2676 H   0  0  0  0  0  0  0  0  0  0  0  0
    2.4245    1.3983   -2.5503 H   0  0  0  0  0  0  0  0  0  0  0  0
    3.7448    0.3340   -2.8311 H   0  0  0  0  0  0  0  0  0  0  0  0
    2.3246   -0.2404   -2.1369 H   0  0  0  0  0  0  0  0  0  0  0  0
   -1.3587   -0.4093   -2.3031 N   0  0  0  0  0  0  0  0  0  0  0  0
   -1.3157    0.6343   -2.2451 H   0  0  0  0  0  0  0  0  0  0  0  0
   -2.0109   -0.8004   -1.5865 H   0  0  0  0  0  0  0  0  0  0  0  0
   -1.6976   -0.6901   -3.2189 H   0  0  0  0  0  0  0  0  0  0  0  0
   -0.4045   -0.7958   -2.1638 H   0  0  0  0  0  0  0  0  0  0  0  0
   -1.3788   -2.4804    1.3423 N   0  0  0  0  0  0  0  0  0  0  0  0
   -1.3765   -3.4666    1.5826 H   0  0  0  0  0  0  0  0  0  0  0  0
   -2.0412   -2.3012    0.5538 H   0  0  0  0  0  0  0  0  0  0  0  0
   -1.6815   -1.8780    2.1238 H   0  0  0  0  0  0  0  0  0  0  0  0
   -0.4202   -2.1928    1.0485 H   0  0  0  0  0  0  0  0  0  0  0  0
   -3.0300    2.6831   -0.2718 N   0  0  0  0  0  0  0  0  0  0  0  0
   -3.5898    1.8134   -0.4076 H   0  0  0  0  0  0  0  0  0  0  0  0
   -3.6135    3.5059   -0.3794 H   0  0  0  0  0  0  0  0  0  0  0  0
   -2.6063    2.6526    0.6779 H   0  0  0  0  0  0  0  0  0  0  0  0
   -2.2531    2.6792   -0.9835 H   0  0  0  0  0  0  0  0  0  0  0  0
    1.8400    2.4842    1.5652 N   0  0  0  0  0  0  0  0  0  0  0  0
    1.2086    1.8130    2.0494 H   0  0  0  0  0  0  0  0  0  0  0  0
    1.2926    3.0083    0.8459 H   0  0  0  0  0  0  0  0  0  0  0  0
    2.2409    3.1232    2.2448 H   0  0  0  0  0  0  0  0  0  0  0  0
    2.6017    1.9460    1.0963 H   0  0  0  0  0  0  0  0  0  0  0  0
   -1.3102    0.8176    2.1518 S   0  0  0  0  0  0  0  0  0  0  0  0
   -1.8394    2.1962    2.1744 O   0  0  0  0  0  0  0  0  0  0  0  0
    0.0337    0.6981    2.7438 O   0  0  0  0  0  0  0  0  0  0  0  0
   -1.2001    0.3804    0.6224 O   0  0  0  0  0  0  0  0  0  0  0  0
   -2.2734   -0.1842    2.6856 O   0  0  0  0  0  0  0  0  0  0  0  0
   -3.6994   -0.5321    1.7088 H   0  0  0  0  0  0  0  0  0  0  0  0
   -0.3680    0.7514    0.1279 H   0  0  0  0  0  0  0  0  0  0  0  0
    4.3242   -0.2720    0.8840 S   0  0  0  0  0  0  0  0  0  0  0  0
    5.5096   -0.2099    1.7129 O   0  0  0  0  0  0  0  0  0  0  0  0
    3.8862    1.0629    0.3468 O   0  0  0  0  0  0  0  0  0  0  0  0
    3.1431   -0.7439    1.8583 O   0  0  0  0  0  0  0  0  0  0  0  0
    4.3627   -1.2441   -0.2438 O   0  0  0  0  0  0  0  0  0  0  0  0
    3.3943   -2.4975   -0.6033 H   0  0  0  0  0  0  0  0  0  0  0  0
    2.3703   -1.0654    1.3288 H   0  0  0  0  0  0  0  0  0  0  0  0
    1.2742   -2.5678   -0.8864 S   0  0  0  0  0  0  0  0  0  0  0  0
    2.7302   -3.1953   -0.8772 O   0  0  0  0  0  0  0  0  0  0  0  0
    0.3356   -3.6778   -0.9720 O   0  0  0  0  0  0  0  0  0  0  0  0
    1.1363   -1.8012    0.3944 O   0  0  0  0  0  0  0  0  0  0  0  0
    1.2098   -1.6376   -2.0525 O   0  0  0  0  0  0  0  0  0  0  0  0
    0.3423    2.5382   -1.5128 S   0  0  0  0  0  0  0  0  0  0  0  0
    0.6890    1.2465   -0.7747 O   0  0  0  0  0  0  0  0  0  0  0  0
   -1.0571    2.3555   -2.0771 O   0  0  0  0  0  0  0  0  0  0  0  0
    0.3529    3.6559   -0.5288 O   0  0  0  0  0  0  0  0  0  0  0  0
    1.3199    2.7153   -2.6175 O   0  0  0  0  0  0  0  0  0  0  0  0
   -4.4323   -1.0254   -0.3006 S   0  0  0  0  0  0  0  0  0  0  0  0
   -4.3906    0.3711   -0.7963 O   0  0  0  0  0  0  0  0  0  0  0  0
   -3.1345   -1.7148   -0.6245 O   0  0  0  0  0  0  0  0  0  0  0  0
   -4.4915   -0.9642    1.3065 O   0  0  0  0  0  0  0  0  0  0  0  0
   -5.6110   -1.7788   -0.6769 O   0  0  0  0  0  0  0  0  0  0  0  0
  1  5  1  0  0  0  0
  1  2  1  0  0  0  0
  3  1  1  0  0  0  0
  4  1  1  0  0  0  0
  6  7  1  0  0  0  0
  6 10  1  0  0  0  0
  6  8  1  0  0  0  0
  9  6  1  0  0  0  0
 11 12  1  0  0  0  0
 11 14  1  0  0  0  0
 13 11  1  0  0  0  0
 15 11  1  0  0  0  0
 16 19  1  0  0  0  0
 17 16  1  0  0  0  0
 18 16  1  0  0  0  0
 20 16  1  0  0  0  0
 21 22  1  0  0  0  0
 21 24  1  0  0  0  0
 23 21  1  0  0  0  0
 25 21  1  0  0  0  0
 26 27  2  0  0  0  0
 26 30  2  0  0  0  0
 26 28  1  0  0  0  0
 29 26  1  0  0  0  0
 32 29  1  0  0  0  0
 33 34  1  0  0  0  0
 33 36  1  0  0  0  0
 35 33  2  0  0  0  0
 37 33  2  0  0  0  0
 39 36  1  0  0  0  0
 40 41  1  0  0  0  0
 40 43  1  0  0  0  0
 41 38  1  0  0  0  0
 42 40  2  0  0  0  0
 44 40  2  0  0  0  0
 45 46  1  0  0  0  0
 45 48  1  0  0  0  0
 47 45  2  0  0  0  0
 49 45  2  0  0  0  0
 50 53  1  0  0  0  0
 51 50  2  0  0  0  0
 52 50  1  0  0  0  0
 53 31  1  0  0  0  0
 54 50  2  0  0  0  0
M  RAD  6  28   2  34   2  43   2  46   2  48   2  52   2
M  END
$$$$
