5sa_1b_4a.sdf 
 OpenBabel09072015433D
Besel et al., Gaussian 16, # opt freq 6-31++g(d,p) wb97xd
 57 47  0  0  0  0  0  0  0  0999 V2000
   -1.0671   -1.6825    1.5694 N   0  0  0  0  0  0  0  0  0  0  0  0
   -0.9809   -0.6517    1.5349 H   0  0  0  0  0  0  0  0  0  0  0  0
   -0.9153   -2.0351    0.6066 H   0  0  0  0  0  0  0  0  0  0  0  0
   -0.3478   -2.0845    2.1895 H   0  0  0  0  0  0  0  0  0  0  0  0
   -2.0310   -1.8659    1.8616 H   0  0  0  0  0  0  0  0  0  0  0  0
   -1.0262    0.5791   -1.5902 N   0  0  0  0  0  0  0  0  0  0  0  0
   -0.9761    0.2685   -2.5612 H   0  0  0  0  0  0  0  0  0  0  0  0
   -1.7649    0.0287   -1.1184 H   0  0  0  0  0  0  0  0  0  0  0  0
   -0.1052    0.3862   -1.1665 H   0  0  0  0  0  0  0  0  0  0  0  0
   -1.2158    1.5787   -1.5005 H   0  0  0  0  0  0  0  0  0  0  0  0
    1.8447    1.3063    1.5829 N   0  0  0  0  0  0  0  0  0  0  0  0
    1.9947    0.8983    0.6389 H   0  0  0  0  0  0  0  0  0  0  0  0
    2.2876    2.2230    1.6173 H   0  0  0  0  0  0  0  0  0  0  0  0
    0.8197    1.4201    1.6766 H   0  0  0  0  0  0  0  0  0  0  0  0
    2.1937    0.6536    2.3106 H   0  0  0  0  0  0  0  0  0  0  0  0
    2.6495   -2.8246   -0.6159 N   0  0  0  0  0  0  0  0  0  0  0  0
    1.6288   -2.6055   -0.6100 H   0  0  0  0  0  0  0  0  0  0  0  0
    2.7596   -3.7666   -0.9824 H   0  0  0  0  0  0  0  0  0  0  0  0
    3.1075   -2.1382   -1.2465 H   0  0  0  0  0  0  0  0  0  0  0  0
    3.0341   -2.7397    0.3452 H   0  0  0  0  0  0  0  0  0  0  0  0
    1.0510    4.0890   -0.5204 S   0  0  0  0  0  0  0  0  0  0  0  0
    0.1145    3.1749   -1.1557 O   0  0  0  0  0  0  0  0  0  0  0  0
    1.1702    5.4334   -1.0234 O   0  0  0  0  0  0  0  0  0  0  0  0
    0.7789    4.1176    1.0422 O   0  0  0  0  0  0  0  0  0  0  0  0
    2.4777    3.4107   -0.4360 O   0  0  0  0  0  0  0  0  0  0  0  0
    2.6766    2.7958   -1.2181 H   0  0  0  0  0  0  0  0  0  0  0  0
   -0.1805    3.9131    1.2691 H   0  0  0  0  0  0  0  0  0  0  0  0
    2.5541   -2.0980    3.0230 S   0  0  0  0  0  0  0  0  0  0  0  0
    3.5642   -2.3614    1.9779 O   0  0  0  0  0  0  0  0  0  0  0  0
    2.4976   -0.6737    3.4123 O   0  0  0  0  0  0  0  0  0  0  0  0
    1.2522   -2.7197    2.7612 O   0  0  0  0  0  0  0  0  0  0  0  0
    3.0658   -2.8824    4.3521 O   0  0  0  0  0  0  0  0  0  0  0  0
    3.8879   -2.4642    4.6411 H   0  0  0  0  0  0  0  0  0  0  0  0
   -4.1895   -1.0493    0.1403 S   0  0  0  0  0  0  0  0  0  0  0  0
   -3.7662   -0.8226    1.5585 O   0  0  0  0  0  0  0  0  0  0  0  0
   -2.9582   -1.2393   -0.6992 O   0  0  0  0  0  0  0  0  0  0  0  0
   -5.2021   -2.0624   -0.0482 O   0  0  0  0  0  0  0  0  0  0  0  0
   -4.8389    0.3274   -0.3504 O   0  0  0  0  0  0  0  0  0  0  0  0
   -4.1836    1.0524   -0.2081 H   0  0  0  0  0  0  0  0  0  0  0  0
   -0.3843   -2.7767   -2.2947 S   0  0  0  0  0  0  0  0  0  0  0  0
   -0.0481   -2.3222   -0.9024 O   0  0  0  0  0  0  0  0  0  0  0  0
   -0.2923   -1.6248   -3.2332 O   0  0  0  0  0  0  0  0  0  0  0  0
    0.3692   -3.9521   -2.7001 O   0  0  0  0  0  0  0  0  0  0  0  0
   -1.9152   -3.2074   -2.2439 O   0  0  0  0  0  0  0  0  0  0  0  0
   -2.4364   -2.5390   -1.7295 H   0  0  0  0  0  0  0  0  0  0  0  0
   -2.0438    2.0683    1.3931 S   0  0  0  0  0  0  0  0  0  0  0  0
   -2.8015    2.0499    0.1265 O   0  0  0  0  0  0  0  0  0  0  0  0
   -0.8981    1.1055    1.3442 O   0  0  0  0  0  0  0  0  0  0  0  0
   -1.6092    3.4023    1.8301 O   0  0  0  0  0  0  0  0  0  0  0  0
   -3.0185    1.5548    2.5350 O   0  0  0  0  0  0  0  0  0  0  0  0
   -3.4023    0.6807    2.2413 H   0  0  0  0  0  0  0  0  0  0  0  0
    2.5708    0.3421   -2.1458 S   0  0  0  0  0  0  0  0  0  0  0  0
    3.5357   -0.7566   -2.2996 O   0  0  0  0  0  0  0  0  0  0  0  0
    1.7372    0.1589   -0.9161 O   0  0  0  0  0  0  0  0  0  0  0  0
    3.1512    1.6933   -2.2320 O   0  0  0  0  0  0  0  0  0  0  0  0
    1.5561    0.2834   -3.3719 O   0  0  0  0  0  0  0  0  0  0  0  0
    1.0333   -0.5641   -3.3671 H   0  0  0  0  0  0  0  0  0  0  0  0
  1  5  1  0  0  0  0
  1  4  1  0  0  0  0
  2  1  1  0  0  0  0
  3  1  1  0  0  0  0
  6 10  1  0  0  0  0
  6  9  1  0  0  0  0
  6  8  1  0  0  0  0
  7  6  1  0  0  0  0
 11 13  1  0  0  0  0
 11 14  1  0  0  0  0
 11 15  1  0  0  0  0
 12 11  1  0  0  0  0
 16 17  1  0  0  0  0
 16 20  1  0  0  0  0
 18 16  1  0  0  0  0
 19 16  1  0  0  0  0
 21 25  1  0  0  0  0
 21 24  1  0  0  0  0
 22 21  2  0  0  0  0
 23 21  2  0  0  0  0
 24 27  1  0  0  0  0
 26 25  1  0  0  0  0
 28 30  1  0  0  0  0
 28 32  1  0  0  0  0
 29 28  2  0  0  0  0
 31 28  2  0  0  0  0
 32 33  1  0  0  0  0
 34 35  1  0  0  0  0
 36 34  2  0  0  0  0
 37 34  2  0  0  0  0
 38 39  1  0  0  0  0
 38 34  1  0  0  0  0
 40 44  1  0  0  0  0
 40 41  1  0  0  0  0
 42 40  2  0  0  0  0
 43 40  2  0  0  0  0
 44 45  1  0  0  0  0
 46 49  1  0  0  0  0
 46 50  1  0  0  0  0
 47 46  2  0  0  0  0
 48 46  2  0  0  0  0
 51 50  1  0  0  0  0
 52 54  1  0  0  0  0
 53 52  2  0  0  0  0
 55 52  2  0  0  0  0
 56 57  1  0  0  0  0
 56 52  1  0  0  0  0
M  RAD  5  30   2  35   2  41   2  49   2  54   2
M  END
$$$$
