6sa_1b_1a.log
 OpenBabel02281910013D
Gaussian kemi/andersx/programs/g09/g09 # opt freq 6-31++g(d,p) wb97xd
 52 44  0  0  0  0  0  0  0  0999 V2000
    1.5545    0.7646    0.8006 S   0  0  0  0  0  0  0  0  0  0  0  0
    2.9098    1.0221    1.3912 O   0  0  0  0  0  0  0  0  0  0  0  0
    1.6224   -0.5012    0.0156 O   0  0  0  0  0  0  0  0  0  0  0  0
    0.5510    0.5971    1.9113 O   0  0  0  0  0  0  0  0  0  0  0  0
    1.1404    1.9182   -0.0666 O   0  0  0  0  0  0  0  0  0  0  0  0
    3.9379   -0.4050    0.7923 H   0  0  0  0  0  0  0  0  0  0  0  0
    1.9476   -2.8085   -2.1060 S   0  0  0  0  0  0  0  0  0  0  0  0
    1.0813   -3.3477   -0.8721 O   0  0  0  0  0  0  0  0  0  0  0  0
    1.3631   -1.3769   -2.3440 O   0  0  0  0  0  0  0  0  0  0  0  0
    3.2975   -2.7331   -1.5560 O   0  0  0  0  0  0  0  0  0  0  0  0
    1.7120   -3.5907   -3.2851 O   0  0  0  0  0  0  0  0  0  0  0  0
    0.0996   -3.2388   -1.0359 H   0  0  0  0  0  0  0  0  0  0  0  0
    1.4137   -0.8512   -1.4800 H   0  0  0  0  0  0  0  0  0  0  0  0
    4.3736    2.9586   -0.9763 S   0  0  0  0  0  0  0  0  0  0  0  0
    4.4465    2.9845    0.6022 O   0  0  0  0  0  0  0  0  0  0  0  0
    2.9179    3.4585   -1.3011 O   0  0  0  0  0  0  0  0  0  0  0  0
    5.2980    3.9335   -1.4787 O   0  0  0  0  0  0  0  0  0  0  0  0
    4.4947    1.5652   -1.4145 O   0  0  0  0  0  0  0  0  0  0  0  0
    3.8324    2.2900    0.9875 H   0  0  0  0  0  0  0  0  0  0  0  0
    2.2286    2.8597   -0.8936 H   0  0  0  0  0  0  0  0  0  0  0  0
   -1.9257    2.9967    1.0662 S   0  0  0  0  0  0  0  0  0  0  0  0
   -1.4456    2.3927   -0.3106 O   0  0  0  0  0  0  0  0  0  0  0  0
   -1.7878    1.7947    2.0757 O   0  0  0  0  0  0  0  0  0  0  0  0
   -1.0895    4.1027    1.4570 O   0  0  0  0  0  0  0  0  0  0  0  0
   -3.3624    3.2055    0.9247 O   0  0  0  0  0  0  0  0  0  0  0  0
   -0.4582    2.2394   -0.3002 H   0  0  0  0  0  0  0  0  0  0  0  0
   -0.8746    1.3910    2.0530 H   0  0  0  0  0  0  0  0  0  0  0  0
    0.7554   -2.7925    2.7262 S   0  0  0  0  0  0  0  0  0  0  0  0
    1.0288   -1.4285    3.4339 O   0  0  0  0  0  0  0  0  0  0  0  0
    1.9870   -2.9385    1.7282 O   0  0  0  0  0  0  0  0  0  0  0  0
    0.8447   -3.8194    3.7235 O   0  0  0  0  0  0  0  0  0  0  0  0
   -0.4517   -2.7004    1.9009 O   0  0  0  0  0  0  0  0  0  0  0  0
    0.8445   -0.6294    2.8379 H   0  0  0  0  0  0  0  0  0  0  0  0
    1.6626   -2.9656    0.7991 H   0  0  0  0  0  0  0  0  0  0  0  0
   -2.2572   -1.7519   -0.9125 S   0  0  0  0  0  0  0  0  0  0  0  0
   -1.5769   -0.9800    0.2656 O   0  0  0  0  0  0  0  0  0  0  0  0
   -3.5988   -2.3100   -0.3378 O   0  0  0  0  0  0  0  0  0  0  0  0
   -2.5228   -0.7590   -1.9366 O   0  0  0  0  0  0  0  0  0  0  0  0
   -1.4642   -2.9229   -1.2593 O   0  0  0  0  0  0  0  0  0  0  0  0
   -1.1454   -1.5909    0.9270 H   0  0  0  0  0  0  0  0  0  0  0  0
   -4.3629   -1.6751   -0.5024 H   0  0  0  0  0  0  0  0  0  0  0  0
   -5.3996    0.7765   -0.8037 S   0  0  0  0  0  0  0  0  0  0  0  0
   -4.3530    1.2630   -1.8840 O   0  0  0  0  0  0  0  0  0  0  0  0
   -4.6578    0.9766    0.5635 O   0  0  0  0  0  0  0  0  0  0  0  0
   -6.5555    1.6169   -0.9371 O   0  0  0  0  0  0  0  0  0  0  0  0
   -5.5588   -0.6763   -0.9040 O   0  0  0  0  0  0  0  0  0  0  0  0
   -3.5964    0.6297   -1.9310 H   0  0  0  0  0  0  0  0  0  0  0  0
   -4.2539    1.8895    0.6793 H   0  0  0  0  0  0  0  0  0  0  0  0
    4.5218   -0.7910    0.0300 N   0  0  0  0  0  0  0  0  0  0  0  0
    4.6835    0.0136   -0.6055 H   0  0  0  0  0  0  0  0  0  0  0  0
    5.3985   -1.1616    0.3839 H   0  0  0  0  0  0  0  0  0  0  0  0
    3.9947   -1.5256   -0.4788 H   0  0  0  0  0  0  0  0  0  0  0  0
  1  2  1  0  0  0  0
  1  4  1  0  0  0  0
  3  1  2  0  0  0  0
  5  1  2  0  0  0  0
  7 10  2  0  0  0  0
  7  8  1  0  0  0  0
  9  7  1  0  0  0  0
  9 13  1  0  0  0  0
 11  7  2  0  0  0  0
 12  8  1  0  0  0  0
 14 15  1  0  0  0  0
 15 19  1  0  0  0  0
 16 14  1  0  0  0  0
 16 20  1  0  0  0  0
 17 14  2  0  0  0  0
 18 14  2  0  0  0  0
 21 24  2  0  0  0  0
 21 23  1  0  0  0  0
 22 26  1  0  0  0  0
 22 21  1  0  0  0  0
 25 21  2  0  0  0  0
 27 23  1  0  0  0  0
 28 29  1  0  0  0  0
 28 31  2  0  0  0  0
 30 28  1  0  0  0  0
 32 28  2  0  0  0  0
 33 29  1  0  0  0  0
 34 30  1  0  0  0  0
 35 37  1  0  0  0  0
 35 36  1  0  0  0  0
 36 40  1  0  0  0  0
 38 35  2  0  0  0  0
 39 35  2  0  0  0  0
 41 37  1  0  0  0  0
 42 44  1  0  0  0  0
 43 42  1  0  0  0  0
 44 48  1  0  0  0  0
 45 42  2  0  0  0  0
 46 42  2  0  0  0  0
 47 43  1  0  0  0  0
 49 51  1  0  0  0  0
 49  6  1  0  0  0  0
 50 49  1  0  0  0  0
 52 49  1  0  0  0  0
M  RAD  2   2   2   4   2
M  END
$$$$
