3sa_1b_1dma.log
 OpenBabel02281910023D
Gaussian kemi/andersx/programs/g09/g09 # opt freq 6-31++g(d,p) wb97xd
 37 32  0  0  0  0  0  0  0  0999 V2000
    1.0104    2.2948    1.9010 C   0  0  0  0  0  0  0  0  0  0  0  0
    0.3343    0.9935    1.7221 N   0  0  0  0  0  0  0  0  0  0  0  0
    0.0837    0.2505    2.9743 C   0  0  0  0  0  0  0  0  0  0  0  0
    2.9271    0.0191    1.3174 O   0  0  0  0  0  0  0  0  0  0  0  0
    4.0866   -0.0955    0.4387 S   0  0  0  0  0  0  0  0  0  0  0  0
    3.8097    0.7826   -0.8539 O   0  0  0  0  0  0  0  0  0  0  0  0
    4.1705   -1.5640   -0.1077 O   0  0  0  0  0  0  0  0  0  0  0  0
    5.3867    0.2712    0.9310 O   0  0  0  0  0  0  0  0  0  0  0  0
    1.3215    0.2183   -1.6948 O   0  0  0  0  0  0  0  0  0  0  0  0
    0.7437   -1.2815   -1.3914 S   0  0  0  0  0  0  0  0  0  0  0  0
    0.1384   -1.1304   -0.0315 O   0  0  0  0  0  0  0  0  0  0  0  0
    1.9824   -2.0818   -1.3641 O   0  0  0  0  0  0  0  0  0  0  0  0
   -0.2063   -1.6204   -2.4267 O   0  0  0  0  0  0  0  0  0  0  0  0
   -0.3448    2.1076   -1.0810 O   0  0  0  0  0  0  0  0  0  0  0  0
   -1.8016    2.2139   -0.8115 S   0  0  0  0  0  0  0  0  0  0  0  0
   -2.0674    1.6100    0.5506 O   0  0  0  0  0  0  0  0  0  0  0  0
   -2.3516    3.5388   -0.9911 O   0  0  0  0  0  0  0  0  0  0  0  0
   -2.5583    1.2698   -1.8485 O   0  0  0  0  0  0  0  0  0  0  0  0
   -3.2219   -1.1653   -0.7809 O   0  0  0  0  0  0  0  0  0  0  0  0
   -3.3535   -1.5264    0.6267 S   0  0  0  0  0  0  0  0  0  0  0  0
   -4.3226   -2.5051    1.0376 O   0  0  0  0  0  0  0  0  0  0  0  0
   -1.9400   -1.9918    1.1506 O   0  0  0  0  0  0  0  0  0  0  0  0
   -3.6496   -0.2159    1.4601 O   0  0  0  0  0  0  0  0  0  0  0  0
    0.8893    0.3867    1.1037 H   0  0  0  0  0  0  0  0  0  0  0  0
   -1.1840   -1.7007    0.5435 H   0  0  0  0  0  0  0  0  0  0  0  0
   -3.1296    0.5537    1.0782 H   0  0  0  0  0  0  0  0  0  0  0  0
   -0.5720    1.1566    1.2320 H   0  0  0  0  0  0  0  0  0  0  0  0
    1.9816    2.1286    2.3659 H   0  0  0  0  0  0  0  0  0  0  0  0
    0.3799    2.9324    2.5233 H   0  0  0  0  0  0  0  0  0  0  0  0
    1.1319    2.7479    0.9173 H   0  0  0  0  0  0  0  0  0  0  0  0
    1.0413    0.0208    3.4426 H   0  0  0  0  0  0  0  0  0  0  0  0
   -0.4474   -0.6700    2.7301 H   0  0  0  0  0  0  0  0  0  0  0  0
   -0.5304    0.8663    3.6335 H   0  0  0  0  0  0  0  0  0  0  0  0
    3.2944   -1.8263   -0.5435 H   0  0  0  0  0  0  0  0  0  0  0  0
    0.6032    0.9054   -1.5571 H   0  0  0  0  0  0  0  0  0  0  0  0
    2.8918    0.6144   -1.1999 H   0  0  0  0  0  0  0  0  0  0  0  0
   -2.6485    0.3475   -1.5124 H   0  0  0  0  0  0  0  0  0  0  0  0
  1 28  1  0  0  0  0
  1 29  1  0  0  0  0
  2  1  1  0  0  0  0
  2  3  1  0  0  0  0
  3 31  1  0  0  0  0
  3 33  1  0  0  0  0
  5  8  2  0  0  0  0
  5  4  2  0  0  0  0
  6  5  1  0  0  0  0
  7  5  1  0  0  0  0
  9 35  1  0  0  0  0
  9 10  1  0  0  0  0
 10 12  2  0  0  0  0
 10 11  1  0  0  0  0
 13 10  2  0  0  0  0
 14 15  2  0  0  0  0
 15 16  1  0  0  0  0
 17 15  2  0  0  0  0
 18 37  1  0  0  0  0
 18 15  1  0  0  0  0
 19 20  2  0  0  0  0
 20 21  2  0  0  0  0
 20 22  1  0  0  0  0
 20 23  1  0  0  0  0
 24  2  1  0  0  0  0
 25 22  1  0  0  0  0
 26 23  1  0  0  0  0
 27  2  1  0  0  0  0
 30  1  1  0  0  0  0
 32  3  1  0  0  0  0
 34  7  1  0  0  0  0
 36  6  1  0  0  0  0
M  RAD  2  11   2  16   2
M  END
$$$$
