3sa_1b_3dma.log
 OpenBabel02281910023D
Gaussian kemi/andersx/programs/g09/g09 # opt freq 6-31++g(d,p) wb97xd
 57 50  0  0  0  0  0  0  0  0999 V2000
   -2.0939    0.7930    1.2291 S   0  0  0  0  0  0  0  0  0  0  0  0
   -3.4932    0.8198    1.7346 O   0  0  0  0  0  0  0  0  0  0  0  0
   -1.6421   -0.6340    1.0047 O   0  0  0  0  0  0  0  0  0  0  0  0
   -2.0144    1.5041   -0.1098 O   0  0  0  0  0  0  0  0  0  0  0  0
   -1.1508    1.4563    2.1812 O   0  0  0  0  0  0  0  0  0  0  0  0
    2.1731    1.1145   -1.1150 S   0  0  0  0  0  0  0  0  0  0  0  0
    1.7051   -0.2209   -0.5232 O   0  0  0  0  0  0  0  0  0  0  0  0
    3.5625    0.9568   -1.6183 O   0  0  0  0  0  0  0  0  0  0  0  0
    2.1059    2.1374   -0.0175 O   0  0  0  0  0  0  0  0  0  0  0  0
    1.2161    1.4730   -2.2064 O   0  0  0  0  0  0  0  0  0  0  0  0
    1.2227    0.0332    2.1750 N   0  0  0  0  0  0  0  0  0  0  0  0
    1.0273   -1.3334    2.7024 C   0  0  0  0  0  0  0  0  0  0  0  0
    1.9541   -1.8912    2.5629 H   0  0  0  0  0  0  0  0  0  0  0  0
    0.2019   -1.7871    2.1543 H   0  0  0  0  0  0  0  0  0  0  0  0
    0.7693   -1.2714    3.7616 H   0  0  0  0  0  0  0  0  0  0  0  0
    2.2544    0.8152    2.8862 C   0  0  0  0  0  0  0  0  0  0  0  0
    3.1992    0.2743    2.8353 H   0  0  0  0  0  0  0  0  0  0  0  0
    1.9395    0.9561    3.9226 H   0  0  0  0  0  0  0  0  0  0  0  0
    2.3600    1.7729    2.3776 H   0  0  0  0  0  0  0  0  0  0  0  0
    1.4755   -0.0377    1.1641 H   0  0  0  0  0  0  0  0  0  0  0  0
    0.3154    0.5500    2.2001 H   0  0  0  0  0  0  0  0  0  0  0  0
   -1.0046   -0.1922   -2.0633 N   0  0  0  0  0  0  0  0  0  0  0  0
   -1.5080    0.2080   -1.2468 H   0  0  0  0  0  0  0  0  0  0  0  0
   -0.0934    0.3151   -2.0831 H   0  0  0  0  0  0  0  0  0  0  0  0
   -1.7577    0.1543   -3.2844 C   0  0  0  0  0  0  0  0  0  0  0  0
   -0.7826   -1.6410   -1.8785 C   0  0  0  0  0  0  0  0  0  0  0  0
   -0.1557   -2.0081   -2.6933 H   0  0  0  0  0  0  0  0  0  0  0  0
   -0.2761   -1.7819   -0.9267 H   0  0  0  0  0  0  0  0  0  0  0  0
   -1.7509   -2.1408   -1.8713 H   0  0  0  0  0  0  0  0  0  0  0  0
   -2.7395   -0.3158   -3.2336 H   0  0  0  0  0  0  0  0  0  0  0  0
   -1.2002   -0.1906   -4.1572 H   0  0  0  0  0  0  0  0  0  0  0  0
   -1.8679    1.2384   -3.3237 H   0  0  0  0  0  0  0  0  0  0  0  0
   -4.5710   -1.7842   -0.2775 S   0  0  0  0  0  0  0  0  0  0  0  0
   -5.5410   -2.8136   -0.5580 O   0  0  0  0  0  0  0  0  0  0  0  0
   -3.9429   -1.0767   -1.3887 O   0  0  0  0  0  0  0  0  0  0  0  0
   -3.4278   -2.4236    0.6037 O   0  0  0  0  0  0  0  0  0  0  0  0
   -5.2542   -0.7417    0.6831 O   0  0  0  0  0  0  0  0  0  0  0  0
   -4.5764   -0.0799    1.0571 H   0  0  0  0  0  0  0  0  0  0  0  0
   -2.6992   -1.7302    0.7817 H   0  0  0  0  0  0  0  0  0  0  0  0
    4.4897   -1.9186    0.1405 S   0  0  0  0  0  0  0  0  0  0  0  0
    5.3498   -3.0755    0.1604 O   0  0  0  0  0  0  0  0  0  0  0  0
    5.2127   -0.8079   -0.7106 O   0  0  0  0  0  0  0  0  0  0  0  0
    4.0429   -1.3466    1.4064 O   0  0  0  0  0  0  0  0  0  0  0  0
    4.5725   -0.0779   -1.0107 H   0  0  0  0  0  0  0  0  0  0  0  0
    3.2111   -2.2750   -0.7175 O   0  0  0  0  0  0  0  0  0  0  0  0
    2.5697   -1.4840   -0.6913 H   0  0  0  0  0  0  0  0  0  0  0  0
   -0.2108    3.4800   -0.1099 N   0  0  0  0  0  0  0  0  0  0  0  0
   -0.2448    4.1936   -1.3991 C   0  0  0  0  0  0  0  0  0  0  0  0
   -0.4298    4.3333    1.0713 C   0  0  0  0  0  0  0  0  0  0  0  0
    0.7146    2.9770   -0.0310 H   0  0  0  0  0  0  0  0  0  0  0  0
    0.4943    4.9976   -1.3863 H   0  0  0  0  0  0  0  0  0  0  0  0
    0.0165    3.4797   -2.1809 H   0  0  0  0  0  0  0  0  0  0  0  0
   -1.2431    4.6070   -1.5591 H   0  0  0  0  0  0  0  0  0  0  0  0
    0.3781    5.0644    1.1469 H   0  0  0  0  0  0  0  0  0  0  0  0
   -1.3886    4.8466    0.9704 H   0  0  0  0  0  0  0  0  0  0  0  0
   -0.4617    3.6879    1.9494 H   0  0  0  0  0  0  0  0  0  0  0  0
   -0.9368    2.7118   -0.1130 H   0  0  0  0  0  0  0  0  0  0  0  0
  1  2  1  0  0  0  0
  1  5  1  0  0  0  0
  3  1  2  0  0  0  0
  4  1  2  0  0  0  0
  6  7  1  0  0  0  0
  6  9  1  0  0  0  0
  8  6  2  0  0  0  0
 10  6  2  0  0  0  0
 11 21  1  0  0  0  0
 11 12  1  0  0  0  0
 11 16  1  0  0  0  0
 12 15  1  0  0  0  0
 13 12  1  0  0  0  0
 14 12  1  0  0  0  0
 16 18  1  0  0  0  0
 17 16  1  0  0  0  0
 19 16  1  0  0  0  0
 20 11  1  0  0  0  0
 22 26  1  0  0  0  0
 22 23  1  0  0  0  0
 24 22  1  0  0  0  0
 25 30  1  0  0  0  0
 25 22  1  0  0  0  0
 26 29  1  0  0  0  0
 26 28  1  0  0  0  0
 27 26  1  0  0  0  0
 31 25  1  0  0  0  0
 32 25  1  0  0  0  0
 33 36  1  0  0  0  0
 33 37  1  0  0  0  0
 34 33  2  0  0  0  0
 35 33  2  0  0  0  0
 36 39  1  0  0  0  0
 37 38  1  0  0  0  0
 40 41  2  0  0  0  0
 40 43  2  0  0  0  0
 42 40  1  0  0  0  0
 44 42  1  0  0  0  0
 45 46  1  0  0  0  0
 45 40  1  0  0  0  0
 47 50  1  0  0  0  0
 47 49  1  0  0  0  0
 48 51  1  0  0  0  0
 48 47  1  0  0  0  0
 49 54  1  0  0  0  0
 49 56  1  0  0  0  0
 52 48  1  0  0  0  0
 53 48  1  0  0  0  0
 55 49  1  0  0  0  0
 57 47  1  0  0  0  0
M  RAD  4   2   2   5   2   7   2   9   2
M  END
$$$$
