3sa_1b_2dma.log
 OpenBabel02281910023D
Gaussian kemi/andersx/programs/g09/g09 # opt freq wb97xd/6-31++g(d,p) geom=conne
 47 41  0  0  0  0  0  0  0  0999 V2000
   -1.0322    0.9731   -2.8488 C   0  0  0  0  0  0  0  0  0  0  0  0
   -1.1792    1.6178   -1.5286 N   0  0  0  0  0  0  0  0  0  0  0  0
   -2.2966    2.5841   -1.4309 C   0  0  0  0  0  0  0  0  0  0  0  0
   -1.5003   -0.2975    0.4263 O   0  0  0  0  0  0  0  0  0  0  0  0
   -1.8248    0.5190    1.6905 S   0  0  0  0  0  0  0  0  0  0  0  0
   -1.2256   -0.1915    2.8525 O   0  0  0  0  0  0  0  0  0  0  0  0
   -3.2966    0.6771    1.8035 O   0  0  0  0  0  0  0  0  0  0  0  0
   -1.1736    1.8628    1.4926 O   0  0  0  0  0  0  0  0  0  0  0  0
    1.3564    1.9352    1.5305 O   0  0  0  0  0  0  0  0  0  0  0  0
    1.9176    1.8242    0.0612 S   0  0  0  0  0  0  0  0  0  0  0  0
    1.2657    2.8440   -0.7737 O   0  0  0  0  0  0  0  0  0  0  0  0
    3.3765    1.9561    0.2004 O   0  0  0  0  0  0  0  0  0  0  0  0
    1.5302    0.4412   -0.4064 O   0  0  0  0  0  0  0  0  0  0  0  0
   -3.1515   -2.0243   -0.4401 O   0  0  0  0  0  0  0  0  0  0  0  0
   -4.3886   -1.1976   -0.9656 S   0  0  0  0  0  0  0  0  0  0  0  0
   -3.8912   -0.1135   -1.8078 O   0  0  0  0  0  0  0  0  0  0  0  0
   -5.3458   -2.1261   -1.5124 O   0  0  0  0  0  0  0  0  0  0  0  0
   -5.0191   -0.5893    0.3440 O   0  0  0  0  0  0  0  0  0  0  0  0
    3.1750   -0.8980   -1.9129 O   0  0  0  0  0  0  0  0  0  0  0  0
    4.3657   -1.2655   -0.9354 S   0  0  0  0  0  0  0  0  0  0  0  0
    5.0703    0.1233   -0.6671 O   0  0  0  0  0  0  0  0  0  0  0  0
    5.2998   -2.0768   -1.6690 O   0  0  0  0  0  0  0  0  0  0  0  0
    3.7943   -1.7615    0.3094 O   0  0  0  0  0  0  0  0  0  0  0  0
    1.0851   -1.2149    1.8685 N   0  0  0  0  0  0  0  0  0  0  0  0
    0.8616   -2.6144    1.4534 C   0  0  0  0  0  0  0  0  0  0  0  0
    2.1560   -1.0272    2.8705 C   0  0  0  0  0  0  0  0  0  0  0  0
    0.3219    1.9342    1.5371 H   0  0  0  0  0  0  0  0  0  0  0  0
   -1.9462    0.4187   -3.0641 H   0  0  0  0  0  0  0  0  0  0  0  0
   -0.1785    0.2962   -2.8034 H   0  0  0  0  0  0  0  0  0  0  0  0
   -0.8558    1.7391   -3.6064 H   0  0  0  0  0  0  0  0  0  0  0  0
   -3.2292    2.0548   -1.6239 H   0  0  0  0  0  0  0  0  0  0  0  0
   -2.1394    3.3804   -2.1615 H   0  0  0  0  0  0  0  0  0  0  0  0
   -2.2947    2.9858   -0.4175 H   0  0  0  0  0  0  0  0  0  0  0  0
   -1.3093    0.8695   -0.8068 H   0  0  0  0  0  0  0  0  0  0  0  0
   -0.2972    2.0996   -1.2773 H   0  0  0  0  0  0  0  0  0  0  0  0
    1.2949   -0.6505    1.0253 H   0  0  0  0  0  0  0  0  0  0  0  0
    0.1879   -0.8287    2.2607 H   0  0  0  0  0  0  0  0  0  0  0  0
    0.5899   -3.2045    2.3305 H   0  0  0  0  0  0  0  0  0  0  0  0
    0.0393   -2.6239    0.7378 H   0  0  0  0  0  0  0  0  0  0  0  0
    1.7747   -2.9973    0.9963 H   0  0  0  0  0  0  0  0  0  0  0  0
    3.0925   -1.4083    2.4648 H   0  0  0  0  0  0  0  0  0  0  0  0
    1.8778   -1.5580    3.7828 H   0  0  0  0  0  0  0  0  0  0  0  0
    2.2424    0.0408    3.0709 H   0  0  0  0  0  0  0  0  0  0  0  0
    4.4367    0.7981   -0.2820 H   0  0  0  0  0  0  0  0  0  0  0  0
    2.4790   -0.3881   -1.3969 H   0  0  0  0  0  0  0  0  0  0  0  0
   -4.3423   -0.0678    0.8908 H   0  0  0  0  0  0  0  0  0  0  0  0
   -2.4526   -1.3762   -0.0705 H   0  0  0  0  0  0  0  0  0  0  0  0
  1 29  1  0  0  0  0
  1  2  1  0  0  0  0
  2  3  1  0  0  0  0
  2 35  1  0  0  0  0
  2 34  1  0  0  0  0
  3 33  1  0  0  0  0
  4  5  2  0  0  0  0
  5  7  1  0  0  0  0
  5  6  1  0  0  0  0
  8  5  2  0  0  0  0
  9 27  1  0  0  0  0
 10 12  1  0  0  0  0
 10  9  1  0  0  0  0
 11 10  2  0  0  0  0
 13 10  2  0  0  0  0
 14 47  1  0  0  0  0
 15 14  1  0  0  0  0
 15 18  1  0  0  0  0
 16 15  2  0  0  0  0
 17 15  2  0  0  0  0
 18 46  1  0  0  0  0
 19 45  1  0  0  0  0
 19 20  1  0  0  0  0
 20 21  1  0  0  0  0
 20 23  2  0  0  0  0
 21 44  1  0  0  0  0
 22 20  2  0  0  0  0
 24 37  1  0  0  0  0
 24 26  1  0  0  0  0
 25 24  1  0  0  0  0
 25 38  1  0  0  0  0
 26 43  1  0  0  0  0
 26 42  1  0  0  0  0
 28  1  1  0  0  0  0
 30  1  1  0  0  0  0
 31  3  1  0  0  0  0
 32  3  1  0  0  0  0
 36 24  1  0  0  0  0
 39 25  1  0  0  0  0
 40 25  1  0  0  0  0
 41 26  1  0  0  0  0
M  RAD  3   6   2   7   2  12   2
M  END
$$$$
