4sa_1b_1dma.log
 OpenBabel02281910023D
Gaussian kemi/andersx/programs/g09/g09 # opt freq 6-31++g(d,p) wb97xd
 44 38  0  0  0  0  0  0  0  0999 V2000
   -2.4597   -3.1966   -0.2965 S   0  0  0  0  0  0  0  0  0  0  0  0
   -3.2848   -4.3723   -0.2936 O   0  0  0  0  0  0  0  0  0  0  0  0
   -2.9837   -2.2395   -1.4436 O   0  0  0  0  0  0  0  0  0  0  0  0
   -2.3270   -2.4064    0.9237 O   0  0  0  0  0  0  0  0  0  0  0  0
   -2.4720   -1.3768   -1.4182 H   0  0  0  0  0  0  0  0  0  0  0  0
   -0.1252   -0.1603   -0.7972 S   0  0  0  0  0  0  0  0  0  0  0  0
   -0.0590   -0.1673    0.6827 O   0  0  0  0  0  0  0  0  0  0  0  0
    0.6123    1.0131   -1.3720 O   0  0  0  0  0  0  0  0  0  0  0  0
   -1.5853   -0.0359   -1.2048 O   0  0  0  0  0  0  0  0  0  0  0  0
    0.4185   -1.4422   -1.3587 O   0  0  0  0  0  0  0  0  0  0  0  0
   -2.5019    0.3216    1.7405 N   0  0  0  0  0  0  0  0  0  0  0  0
   -3.9664    0.1777    1.6264 C   0  0  0  0  0  0  0  0  0  0  0  0
   -4.2889   -0.6700    2.2312 H   0  0  0  0  0  0  0  0  0  0  0  0
   -4.2125   -0.0063    0.5809 H   0  0  0  0  0  0  0  0  0  0  0  0
   -4.4405    1.0998    1.9644 H   0  0  0  0  0  0  0  0  0  0  0  0
   -2.0004    0.5701    3.1119 C   0  0  0  0  0  0  0  0  0  0  0  0
   -0.9174    0.7004    3.0756 H   0  0  0  0  0  0  0  0  0  0  0  0
   -2.2570   -0.2842    3.7399 H   0  0  0  0  0  0  0  0  0  0  0  0
   -2.4679    1.4777    3.4961 H   0  0  0  0  0  0  0  0  0  0  0  0
   -2.0517   -0.5245    1.3639 H   0  0  0  0  0  0  0  0  0  0  0  0
   -2.1993    1.0990    1.1315 H   0  0  0  0  0  0  0  0  0  0  0  0
   -1.0254   -3.6287   -0.7928 O   0  0  0  0  0  0  0  0  0  0  0  0
   -0.4307   -2.8394   -0.9388 H   0  0  0  0  0  0  0  0  0  0  0  0
   -1.9898    3.3217   -0.9454 S   0  0  0  0  0  0  0  0  0  0  0  0
   -2.2078    2.7282    0.3736 O   0  0  0  0  0  0  0  0  0  0  0  0
   -2.5883    4.5908   -1.2469 O   0  0  0  0  0  0  0  0  0  0  0  0
   -0.4395    3.4538   -1.1955 O   0  0  0  0  0  0  0  0  0  0  0  0
   -2.4662    2.2826   -2.0359 O   0  0  0  0  0  0  0  0  0  0  0  0
    0.0096    2.5618   -1.1645 H   0  0  0  0  0  0  0  0  0  0  0  0
   -2.1438    1.3636   -1.7912 H   0  0  0  0  0  0  0  0  0  0  0  0
    2.3451    0.2896    2.9818 S   0  0  0  0  0  0  0  0  0  0  0  0
    1.2686    1.0308    3.6085 O   0  0  0  0  0  0  0  0  0  0  0  0
    3.4937   -0.1004    3.7620 O   0  0  0  0  0  0  0  0  0  0  0  0
    2.7754    1.1591    1.7211 O   0  0  0  0  0  0  0  0  0  0  0  0
    1.7904   -1.0311    2.3100 O   0  0  0  0  0  0  0  0  0  0  0  0
    1.0839   -0.7939    1.6468 H   0  0  0  0  0  0  0  0  0  0  0  0
    3.2189    0.6057    1.0357 H   0  0  0  0  0  0  0  0  0  0  0  0
    3.7615   -0.4091   -1.7472 S   0  0  0  0  0  0  0  0  0  0  0  0
    2.8784   -1.5631   -2.3659 O   0  0  0  0  0  0  0  0  0  0  0  0
    3.0911    0.9136   -2.2947 O   0  0  0  0  0  0  0  0  0  0  0  0
    3.5995   -0.4467   -0.2974 O   0  0  0  0  0  0  0  0  0  0  0  0
    5.0693   -0.5024   -2.3302 O   0  0  0  0  0  0  0  0  0  0  0  0
    1.9667   -1.5664   -1.9604 H   0  0  0  0  0  0  0  0  0  0  0  0
    2.1664    1.0022   -1.9307 H   0  0  0  0  0  0  0  0  0  0  0  0
  1  2  2  0  0  0  0
  1  4  2  0  0  0  0
  3  5  1  0  0  0  0
  3  1  1  0  0  0  0
  6  7  1  0  0  0  0
  8  6  2  0  0  0  0
  9  6  1  0  0  0  0
 10  6  2  0  0  0  0
 11 16  1  0  0  0  0
 12 11  1  0  0  0  0
 12 15  1  0  0  0  0
 12 13  1  0  0  0  0
 14 12  1  0  0  0  0
 16 19  1  0  0  0  0
 16 18  1  0  0  0  0
 17 16  1  0  0  0  0
 20 11  1  0  0  0  0
 21 11  1  0  0  0  0
 22  1  1  0  0  0  0
 23 22  1  0  0  0  0
 24 25  2  0  0  0  0
 26 24  2  0  0  0  0
 27 29  1  0  0  0  0
 27 24  1  0  0  0  0
 28 30  1  0  0  0  0
 28 24  1  0  0  0  0
 31 32  2  0  0  0  0
 31 33  2  0  0  0  0
 34 31  1  0  0  0  0
 35 31  1  0  0  0  0
 36 35  1  0  0  0  0
 37 34  1  0  0  0  0
 38 41  2  0  0  0  0
 39 43  1  0  0  0  0
 39 38  1  0  0  0  0
 40 44  1  0  0  0  0
 40 38  1  0  0  0  0
 42 38  2  0  0  0  0
M  RAD  2   7   2   9   2
M  END
$$$$
