1sa_1dma_3w.log
 OpenBabel02281909523D
Gaussian kemi/andersx/programs/g09/g09 # opt freq 6-31++g(d,p) wb97xd
 26 21  0  0  0  0  0  0  0  0999 V2000
   -1.5980    1.9475   -0.3241 O   0  0  0  0  0  0  0  0  0  0  0  0
   -1.8031    0.3302   -0.4614 H   0  0  0  0  0  0  0  0  0  0  0  0
   -0.7922    2.2383   -0.8056 H   0  0  0  0  0  0  0  0  0  0  0  0
   -1.3768    1.9880    0.6239 H   0  0  0  0  0  0  0  0  0  0  0  0
   -1.9304   -0.7147   -0.3232 N   0  0  0  0  0  0  0  0  0  0  0  0
   -1.0540   -1.0000    0.1559 H   0  0  0  0  0  0  0  0  0  0  0  0
    0.8163    2.3540   -1.5869 O   0  0  0  0  0  0  0  0  0  0  0  0
    0.9133    1.4356   -1.8845 H   0  0  0  0  0  0  0  0  0  0  0  0
    1.4570    2.3951   -0.8637 H   0  0  0  0  0  0  0  0  0  0  0  0
   -0.9926    1.1400    2.2795 O   0  0  0  0  0  0  0  0  0  0  0  0
   -0.3190    0.4742    2.0379 H   0  0  0  0  0  0  0  0  0  0  0  0
   -0.6498    1.6141    3.0404 H   0  0  0  0  0  0  0  0  0  0  0  0
    1.5211   -0.4552    0.1354 S   0  0  0  0  0  0  0  0  0  0  0  0
    2.6007   -1.6563    0.3007 O   0  0  0  0  0  0  0  0  0  0  0  0
    0.4591   -0.8738    1.0899 O   0  0  0  0  0  0  0  0  0  0  0  0
    1.0432   -0.4959   -1.2603 O   0  0  0  0  0  0  0  0  0  0  0  0
    2.2102    0.7845    0.4987 O   0  0  0  0  0  0  0  0  0  0  0  0
    3.4290   -1.3702   -0.1078 H   0  0  0  0  0  0  0  0  0  0  0  0
   -2.0423   -1.3953   -1.6288 C   0  0  0  0  0  0  0  0  0  0  0  0
   -2.8951   -0.9861   -2.1727 H   0  0  0  0  0  0  0  0  0  0  0  0
   -1.1165   -1.2227   -2.1768 H   0  0  0  0  0  0  0  0  0  0  0  0
   -2.1829   -2.4658   -1.4690 H   0  0  0  0  0  0  0  0  0  0  0  0
   -3.0747   -0.9161    0.5900 C   0  0  0  0  0  0  0  0  0  0  0  0
   -2.8709   -0.3734    1.5143 H   0  0  0  0  0  0  0  0  0  0  0  0
   -3.9782   -0.5233    0.1213 H   0  0  0  0  0  0  0  0  0  0  0  0
   -3.1947   -1.9809    0.7965 H   0  0  0  0  0  0  0  0  0  0  0  0
  1  4  1  0  0  0  0
  2  5  1  0  0  0  0
  3  1  1  0  0  0  0
  5  6  1  0  0  0  0
  5 23  1  0  0  0  0
  7  9  1  0  0  0  0
  8  7  1  0  0  0  0
 10 12  1  0  0  0  0
 11 10  1  0  0  0  0
 13 14  1  0  0  0  0
 13 17  2  0  0  0  0
 13 15  1  0  0  0  0
 16 13  2  0  0  0  0
 18 14  1  0  0  0  0
 19 22  1  0  0  0  0
 19  5  1  0  0  0  0
 20 19  1  0  0  0  0
 21 19  1  0  0  0  0
 23 26  1  0  0  0  0
 23 24  1  0  0  0  0
 25 23  1  0  0  0  0
M  RAD  1  15   2
M  END
$$$$
