1sa_1dma_1w.log
 OpenBabel02281909523D
Gaussian kemi/andersx/programs/g09/g09 # opt freq 6-31++g(d,p) wb97xd
 20 17  0  0  0  0  0  0  0  0999 V2000
    1.4762   -0.0821   -0.1350 S   0  0  0  0  0  0  0  0  0  0  0  0
    0.5148   -1.0032   -0.7933 O   0  0  0  0  0  0  0  0  0  0  0  0
    0.7751    0.8213    0.8135 O   0  0  0  0  0  0  0  0  0  0  0  0
    2.3340   -1.1049    0.8021 O   0  0  0  0  0  0  0  0  0  0  0  0
    2.4298    0.5782   -1.0122 O   0  0  0  0  0  0  0  0  0  0  0  0
   -0.9982   -0.6397   -0.4139 H   0  0  0  0  0  0  0  0  0  0  0  0
    3.1842   -0.6835    0.9849 H   0  0  0  0  0  0  0  0  0  0  0  0
   -1.9564   -0.3079   -0.0982 N   0  0  0  0  0  0  0  0  0  0  0  0
   -1.9071    0.7284   -0.1848 H   0  0  0  0  0  0  0  0  0  0  0  0
   -1.2868    2.3593    0.0738 O   0  0  0  0  0  0  0  0  0  0  0  0
   -1.1408    3.0766   -0.5469 H   0  0  0  0  0  0  0  0  0  0  0  0
   -0.4014    2.0306    0.3484 H   0  0  0  0  0  0  0  0  0  0  0  0
   -3.0021   -0.8634   -0.9766 C   0  0  0  0  0  0  0  0  0  0  0  0
   -3.9776   -0.4736   -0.6802 H   0  0  0  0  0  0  0  0  0  0  0  0
   -2.9983   -1.9512   -0.8938 H   0  0  0  0  0  0  0  0  0  0  0  0
   -2.7869   -0.5793   -2.0069 H   0  0  0  0  0  0  0  0  0  0  0  0
   -2.1047   -0.6472    1.3344 C   0  0  0  0  0  0  0  0  0  0  0  0
   -3.0481   -0.2477    1.7102 H   0  0  0  0  0  0  0  0  0  0  0  0
   -1.2627   -0.2031    1.8660 H   0  0  0  0  0  0  0  0  0  0  0  0
   -2.0817   -1.7321    1.4472 H   0  0  0  0  0  0  0  0  0  0  0  0
  1  4  1  0  0  0  0
  1  3  1  0  0  0  0
  2  1  2  0  0  0  0
  4  7  1  0  0  0  0
  5  1  2  0  0  0  0
  6  8  1  0  0  0  0
  8 17  1  0  0  0  0
  9  8  1  0  0  0  0
 10 12  1  0  0  0  0
 11 10  1  0  0  0  0
 13 15  1  0  0  0  0
 13 14  1  0  0  0  0
 13  8  1  0  0  0  0
 16 13  1  0  0  0  0
 17 20  1  0  0  0  0
 17 18  1  0  0  0  0
 17 19  1  0  0  0  0
M  RAD  1   3   2
M  END
$$$$
