2sa_2dma_3w.log
 OpenBabel02281909523D
Gaussian kemi/andersx/programs/g09/g09 # opt freq 6-31++g(d,p) wb97xd
 43 36  0  0  0  0  0  0  0  0999 V2000
   -0.9993   -1.2411   -0.4915 S   0  0  0  0  0  0  0  0  0  0  0  0
   -2.3245   -1.7687   -0.8531 O   0  0  0  0  0  0  0  0  0  0  0  0
    0.1042   -2.1962   -0.6708 O   0  0  0  0  0  0  0  0  0  0  0  0
   -0.7752   -0.0507   -1.5548 O   0  0  0  0  0  0  0  0  0  0  0  0
   -0.9900   -0.5962    0.8491 O   0  0  0  0  0  0  0  0  0  0  0  0
    0.1229    0.3562   -1.4134 H   0  0  0  0  0  0  0  0  0  0  0  0
   -4.2331   -0.0655    0.1239 N   0  0  0  0  0  0  0  0  0  0  0  0
   -3.7734    0.7858   -0.3125 H   0  0  0  0  0  0  0  0  0  0  0  0
   -3.6068   -0.8448   -0.1778 H   0  0  0  0  0  0  0  0  0  0  0  0
   -5.5819   -0.2472   -0.4455 C   0  0  0  0  0  0  0  0  0  0  0  0
   -6.1970    0.6199   -0.1996 H   0  0  0  0  0  0  0  0  0  0  0  0
   -6.0337   -1.1514   -0.0343 H   0  0  0  0  0  0  0  0  0  0  0  0
   -5.4946   -0.3402   -1.5280 H   0  0  0  0  0  0  0  0  0  0  0  0
   -4.1932    0.0598    1.5969 C   0  0  0  0  0  0  0  0  0  0  0  0
   -4.7394    0.9553    1.8969 H   0  0  0  0  0  0  0  0  0  0  0  0
   -3.1506    0.1367    1.9036 H   0  0  0  0  0  0  0  0  0  0  0  0
   -4.6452   -0.8251    2.0479 H   0  0  0  0  0  0  0  0  0  0  0  0
    2.2676    1.6911   -0.0793 S   0  0  0  0  0  0  0  0  0  0  0  0
    1.4302    2.7496    0.4842 O   0  0  0  0  0  0  0  0  0  0  0  0
    1.6594    0.8881   -1.1596 O   0  0  0  0  0  0  0  0  0  0  0  0
    3.4756    2.4387   -0.8669 O   0  0  0  0  0  0  0  0  0  0  0  0
    2.9163    0.8337    0.9408 O   0  0  0  0  0  0  0  0  0  0  0  0
    3.8054    3.1487   -0.2992 H   0  0  0  0  0  0  0  0  0  0  0  0
    2.7453   -1.8212   -0.0018 N   0  0  0  0  0  0  0  0  0  0  0  0
    1.7194   -1.9258   -0.1507 H   0  0  0  0  0  0  0  0  0  0  0  0
    2.8616   -0.8887    0.4399 H   0  0  0  0  0  0  0  0  0  0  0  0
    3.2152   -2.8762    0.9223 C   0  0  0  0  0  0  0  0  0  0  0  0
    4.2868   -2.7523    1.0875 H   0  0  0  0  0  0  0  0  0  0  0  0
    3.0179   -3.8517    0.4751 H   0  0  0  0  0  0  0  0  0  0  0  0
    2.6695   -2.7592    1.8584 H   0  0  0  0  0  0  0  0  0  0  0  0
    3.4107   -1.8156   -1.3229 C   0  0  0  0  0  0  0  0  0  0  0  0
    4.4821   -1.6650   -1.1821 H   0  0  0  0  0  0  0  0  0  0  0  0
    2.9925   -0.9974   -1.9085 H   0  0  0  0  0  0  0  0  0  0  0  0
    3.2268   -2.7700   -1.8178 H   0  0  0  0  0  0  0  0  0  0  0  0
   -1.2678    2.1905    1.1176 O   0  0  0  0  0  0  0  0  0  0  0  0
   -1.0861    1.2348    1.1331 H   0  0  0  0  0  0  0  0  0  0  0  0
   -0.3937    2.5944    0.9888 H   0  0  0  0  0  0  0  0  0  0  0  0
   -2.8670    1.9511   -1.0191 O   0  0  0  0  0  0  0  0  0  0  0  0
   -2.2933    2.2545   -0.2736 H   0  0  0  0  0  0  0  0  0  0  0  0
   -2.2509    1.4618   -1.5838 H   0  0  0  0  0  0  0  0  0  0  0  0
    1.3022   -0.9927    2.5307 O   0  0  0  0  0  0  0  0  0  0  0  0
    1.7424   -0.1497    2.3603 H   0  0  0  0  0  0  0  0  0  0  0  0
    0.4468   -0.9217    2.0792 H   0  0  0  0  0  0  0  0  0  0  0  0
  1  5  1  0  0  0  0
  2  1  2  0  0  0  0
  3  1  2  0  0  0  0
  4  6  1  0  0  0  0
  4  1  1  0  0  0  0
  7 14  1  0  0  0  0
  8  7  1  0  0  0  0
  9  7  1  0  0  0  0
 10 11  1  0  0  0  0
 10 12  1  0  0  0  0
 10  7  1  0  0  0  0
 13 10  1  0  0  0  0
 14 15  1  0  0  0  0
 14 16  1  0  0  0  0
 14 17  1  0  0  0  0
 18 19  2  0  0  0  0
 18 22  1  0  0  0  0
 20 18  2  0  0  0  0
 21 23  1  0  0  0  0
 21 18  1  0  0  0  0
 24 26  1  0  0  0  0
 24 27  1  0  0  0  0
 25 24  1  0  0  0  0
 27 28  1  0  0  0  0
 27 30  1  0  0  0  0
 29 27  1  0  0  0  0
 31 32  1  0  0  0  0
 31 24  1  0  0  0  0
 33 31  1  0  0  0  0
 34 31  1  0  0  0  0
 35 36  1  0  0  0  0
 37 35  1  0  0  0  0
 38 39  1  0  0  0  0
 40 38  1  0  0  0  0
 42 41  1  0  0  0  0
 43 41  1  0  0  0  0
M  RAD  2   5   2  22   2
M  END
$$$$
