3sa_2dma_3w.log
 OpenBabel02281909523D
Gaussian kemi/andersx/programs/g09/g09 # opt freq 6-31++g(d,p) wb97xd
 50 42  0  0  0  0  0  0  0  0999 V2000
    0.5826   -2.2977    0.0027 S   0  0  0  0  0  0  0  0  0  0  0  0
    1.8994   -2.7449    0.4615 O   0  0  0  0  0  0  0  0  0  0  0  0
   -0.3616   -3.5627    0.1026 O   0  0  0  0  0  0  0  0  0  0  0  0
    0.0017   -1.2583    0.9047 O   0  0  0  0  0  0  0  0  0  0  0  0
    0.5706   -1.8421   -1.4088 O   0  0  0  0  0  0  0  0  0  0  0  0
   -1.5050    2.3064    1.4348 H   0  0  0  0  0  0  0  0  0  0  0  0
    3.7354   -0.6590    0.7427 N   0  0  0  0  0  0  0  0  0  0  0  0
    3.0680   -1.4531    0.6606 H   0  0  0  0  0  0  0  0  0  0  0  0
    3.1878    0.1959    0.4969 H   0  0  0  0  0  0  0  0  0  0  0  0
    0.1979    1.5355   -1.3394 O   0  0  0  0  0  0  0  0  0  0  0  0
    2.1296    1.5146    0.1643 O   0  0  0  0  0  0  0  0  0  0  0  0
    1.6886    1.5943   -1.2655 S   0  0  0  0  0  0  0  0  0  0  0  0
    2.3100    2.6620   -2.0132 O   0  0  0  0  0  0  0  0  0  0  0  0
    2.2010    0.2232   -1.9313 O   0  0  0  0  0  0  0  0  0  0  0  0
    1.5674   -0.5210   -1.7579 H   0  0  0  0  0  0  0  0  0  0  0  0
   -1.2932   -3.2608   -0.0186 H   0  0  0  0  0  0  0  0  0  0  0  0
   -0.8115    2.1575   -0.0973 H   0  0  0  0  0  0  0  0  0  0  0  0
   -1.3709    2.7871    0.5128 N   0  0  0  0  0  0  0  0  0  0  0  0
   -0.5640    4.0072    0.7391 C   0  0  0  0  0  0  0  0  0  0  0  0
   -2.6786    3.0387   -0.1322 C   0  0  0  0  0  0  0  0  0  0  0  0
    4.8188   -0.8439   -0.2506 C   0  0  0  0  0  0  0  0  0  0  0  0
    4.1931   -0.5531    2.1478 C   0  0  0  0  0  0  0  0  0  0  0  0
    3.3257   -0.3510    2.7779 H   0  0  0  0  0  0  0  0  0  0  0  0
    4.9056    0.2691    2.2264 H   0  0  0  0  0  0  0  0  0  0  0  0
    4.6694   -1.4896    2.4400 H   0  0  0  0  0  0  0  0  0  0  0  0
    5.3404   -1.7783   -0.0404 H   0  0  0  0  0  0  0  0  0  0  0  0
    5.5100   -0.0028   -0.1846 H   0  0  0  0  0  0  0  0  0  0  0  0
    4.3699   -0.8725   -1.2427 H   0  0  0  0  0  0  0  0  0  0  0  0
   -3.2813    3.6768    0.5155 H   0  0  0  0  0  0  0  0  0  0  0  0
   -2.5116    3.5310   -1.0914 H   0  0  0  0  0  0  0  0  0  0  0  0
   -3.1816    2.0857   -0.2913 H   0  0  0  0  0  0  0  0  0  0  0  0
   -0.3643    4.4872   -0.2199 H   0  0  0  0  0  0  0  0  0  0  0  0
   -1.1120    4.6820    1.3976 H   0  0  0  0  0  0  0  0  0  0  0  0
    0.3802    3.7203    1.2026 H   0  0  0  0  0  0  0  0  0  0  0  0
   -3.3887   -1.0178    0.0236 S   0  0  0  0  0  0  0  0  0  0  0  0
   -4.6254   -0.9624    0.7499 O   0  0  0  0  0  0  0  0  0  0  0  0
   -3.5585   -0.2030   -1.2947 O   0  0  0  0  0  0  0  0  0  0  0  0
   -2.7673   -2.3062   -0.2819 O   0  0  0  0  0  0  0  0  0  0  0  0
   -2.6972   -0.2590   -1.8786 H   0  0  0  0  0  0  0  0  0  0  0  0
   -2.3112   -0.1573    0.8297 O   0  0  0  0  0  0  0  0  0  0  0  0
   -1.4084   -0.6025    0.7888 H   0  0  0  0  0  0  0  0  0  0  0  0
   -1.4233   -0.2899   -2.6063 O   0  0  0  0  0  0  0  0  0  0  0  0
   -0.9017   -1.0748   -2.3660 H   0  0  0  0  0  0  0  0  0  0  0  0
   -0.8488    0.4536   -2.3383 H   0  0  0  0  0  0  0  0  0  0  0  0
    1.0445    0.6463    2.5749 O   0  0  0  0  0  0  0  0  0  0  0  0
    1.3551    1.1401    1.7954 H   0  0  0  0  0  0  0  0  0  0  0  0
    0.7544   -0.1948    2.1815 H   0  0  0  0  0  0  0  0  0  0  0  0
   -1.4563    1.6994    3.0268 O   0  0  0  0  0  0  0  0  0  0  0  0
   -2.0625    0.9508    3.0447 H   0  0  0  0  0  0  0  0  0  0  0  0
   -0.5514    1.3193    3.0679 H   0  0  0  0  0  0  0  0  0  0  0  0
  1  3  1  0  0  0  0
  1  2  2  0  0  0  0
  1  4  1  0  0  0  0
  5  1  2  0  0  0  0
  7 22  1  0  0  0  0
  8  7  1  0  0  0  0
  9  7  1  0  0  0  0
 10 12  2  0  0  0  0
 12 11  1  0  0  0  0
 13 12  2  0  0  0  0
 14 15  1  0  0  0  0
 14 12  1  0  0  0  0
 16  3  1  0  0  0  0
 17 18  1  0  0  0  0
 18 19  1  0  0  0  0
 18  6  1  0  0  0  0
 19 34  1  0  0  0  0
 19 33  1  0  0  0  0
 20 18  1  0  0  0  0
 20 29  1  0  0  0  0
 21 27  1  0  0  0  0
 21 26  1  0  0  0  0
 21  7  1  0  0  0  0
 22 24  1  0  0  0  0
 22 25  1  0  0  0  0
 22 23  1  0  0  0  0
 28 21  1  0  0  0  0
 30 20  1  0  0  0  0
 31 20  1  0  0  0  0
 32 19  1  0  0  0  0
 35 36  2  0  0  0  0
 35 40  1  0  0  0  0
 37 35  1  0  0  0  0
 38 35  2  0  0  0  0
 39 37  1  0  0  0  0
 41 40  1  0  0  0  0
 42 43  1  0  0  0  0
 42 44  1  0  0  0  0
 46 45  1  0  0  0  0
 47 45  1  0  0  0  0
 48 49  1  0  0  0  0
 48 50  1  0  0  0  0
M  RAD  2   4   2  11   2
M  END
$$$$
