3sa_1dma_4w.log
 OpenBabel02281909523D
Gaussian kemi/andersx/programs/g09/g09 # opt freq 6-31++g(d,p) wb97xd
 43 33  0  0  0  0  0  0  0  0999 V2000
   -1.5427    2.1714    0.2227 S   0  0  0  0  0  0  0  0  0  0  0  0
   -1.5751    1.5633   -1.1424 O   0  0  0  0  0  0  0  0  0  0  0  0
   -1.4734    3.7401    0.0473 O   0  0  0  0  0  0  0  0  0  0  0  0
   -2.7803    1.8849    0.9535 O   0  0  0  0  0  0  0  0  0  0  0  0
   -0.5257    3.9666   -0.1630 H   0  0  0  0  0  0  0  0  0  0  0  0
    3.3272    0.2761    0.0390 S   0  0  0  0  0  0  0  0  0  0  0  0
    2.9371   -0.0098    1.4394 O   0  0  0  0  0  0  0  0  0  0  0  0
    4.8258    0.8630    0.1505 O   0  0  0  0  0  0  0  0  0  0  0  0
    3.4530   -0.8809   -0.8332 O   0  0  0  0  0  0  0  0  0  0  0  0
    4.8705    1.4550    0.9142 H   0  0  0  0  0  0  0  0  0  0  0  0
   -0.6513   -2.3394   -0.1658 S   0  0  0  0  0  0  0  0  0  0  0  0
   -0.9497   -1.9610    1.2480 O   0  0  0  0  0  0  0  0  0  0  0  0
   -1.8757   -2.3573   -0.9763 O   0  0  0  0  0  0  0  0  0  0  0  0
   -0.0786   -3.8023   -0.1703 O   0  0  0  0  0  0  0  0  0  0  0  0
    0.4376   -1.4878   -0.7082 O   0  0  0  0  0  0  0  0  0  0  0  0
    2.7439   -2.5891   -0.4684 H   0  0  0  0  0  0  0  0  0  0  0  0
   -0.2938    1.8077    0.9339 O   0  0  0  0  0  0  0  0  0  0  0  0
    0.5198   -0.1735    2.2586 O   0  0  0  0  0  0  0  0  0  0  0  0
    2.5087   -3.4944   -0.1889 O   0  0  0  0  0  0  0  0  0  0  0  0
    0.5648    0.6029   -2.0683 O   0  0  0  0  0  0  0  0  0  0  0  0
   -3.7366   -0.5555   -0.0245 N   0  0  0  0  0  0  0  0  0  0  0  0
    1.3592    0.9699   -1.5673 H   0  0  0  0  0  0  0  0  0  0  0  0
    0.4621   -0.3306   -1.6775 H   0  0  0  0  0  0  0  0  0  0  0  0
   -0.2759    1.0900   -1.7452 H   0  0  0  0  0  0  0  0  0  0  0  0
    3.0976   -3.7164    0.5362 H   0  0  0  0  0  0  0  0  0  0  0  0
    0.9300   -3.7544   -0.1454 H   0  0  0  0  0  0  0  0  0  0  0  0
   -3.3216    0.2929    0.4091 H   0  0  0  0  0  0  0  0  0  0  0  0
   -2.9622   -1.1282   -0.4231 H   0  0  0  0  0  0  0  0  0  0  0  0
    0.1168    0.6412    1.8104 H   0  0  0  0  0  0  0  0  0  0  0  0
    1.4807   -0.1980    1.9451 H   0  0  0  0  0  0  0  0  0  0  0  0
   -0.0039   -0.9727    1.8945 H   0  0  0  0  0  0  0  0  0  0  0  0
    2.5102    1.3772   -0.5507 O   0  0  0  0  0  0  0  0  0  0  0  0
    1.1552    3.9175   -0.4305 O   0  0  0  0  0  0  0  0  0  0  0  0
    1.5643    3.0779   -0.1611 H   0  0  0  0  0  0  0  0  0  0  0  0
    1.6233    4.2080   -1.2171 H   0  0  0  0  0  0  0  0  0  0  0  0
   -4.6176   -0.1112   -1.1273 C   0  0  0  0  0  0  0  0  0  0  0  0
   -5.0021   -0.9865   -1.6520 H   0  0  0  0  0  0  0  0  0  0  0  0
   -5.4397    0.4745   -0.7141 H   0  0  0  0  0  0  0  0  0  0  0  0
   -4.0250    0.5072   -1.8013 H   0  0  0  0  0  0  0  0  0  0  0  0
   -4.3990   -1.3675    1.0202 C   0  0  0  0  0  0  0  0  0  0  0  0
   -5.1648   -0.7667    1.5123 H   0  0  0  0  0  0  0  0  0  0  0  0
   -4.8471   -2.2465    0.5555 H   0  0  0  0  0  0  0  0  0  0  0  0
   -3.6398   -1.6808    1.7368 H   0  0  0  0  0  0  0  0  0  0  0  0
  1 17  2  0  0  0  0
  1  4  1  0  0  0  0
  2  1  2  0  0  0  0
  3  1  1  0  0  0  0
  5  3  1  0  0  0  0
  6  8  1  0  0  0  0
  6  7  1  0  0  0  0
  8 10  1  0  0  0  0
  9  6  2  0  0  0  0
 11 12  1  0  0  0  0
 13 11  2  0  0  0  0
 14 11  1  0  0  0  0
 14 26  1  0  0  0  0
 15 11  2  0  0  0  0
 16 19  1  0  0  0  0
 19 25  1  0  0  0  0
 20 23  1  0  0  0  0
 20 22  1  0  0  0  0
 21 27  1  0  0  0  0
 21 40  1  0  0  0  0
 28 21  1  0  0  0  0
 29 18  1  0  0  0  0
 30 18  1  0  0  0  0
 32  6  2  0  0  0  0
 33 34  1  0  0  0  0
 35 33  1  0  0  0  0
 36 38  1  0  0  0  0
 36 21  1  0  0  0  0
 37 36  1  0  0  0  0
 39 36  1  0  0  0  0
 40 41  1  0  0  0  0
 40 43  1  0  0  0  0
 42 40  1  0  0  0  0
M  RAD  5   4   2   7   2  12   2  24   2  31   2
M  END
$$$$
