3sa_1dma_3w.log
 OpenBabel02281909523D
Gaussian kemi/andersx/programs/g09/g09 # opt freq 6-31++g(d,p) wb97xd
 40 31  0  0  0  0  0  0  0  0999 V2000
   -1.8625   -2.2448   -0.0887 S   0  0  0  0  0  0  0  0  0  0  0  0
   -1.6918   -1.7015    1.2825 O   0  0  0  0  0  0  0  0  0  0  0  0
   -2.5695   -3.6834    0.0728 O   0  0  0  0  0  0  0  0  0  0  0  0
   -2.8241   -1.4873   -0.8900 O   0  0  0  0  0  0  0  0  0  0  0  0
   -1.9256   -4.3109    0.4303 H   0  0  0  0  0  0  0  0  0  0  0  0
    3.5065   -0.6285    0.0377 S   0  0  0  0  0  0  0  0  0  0  0  0
    3.0839   -0.1880   -1.3308 O   0  0  0  0  0  0  0  0  0  0  0  0
    4.8799   -1.4394   -0.1746 O   0  0  0  0  0  0  0  0  0  0  0  0
    3.8598    0.4657    0.9215 O   0  0  0  0  0  0  0  0  0  0  0  0
    4.6990   -2.2439   -0.6805 H   0  0  0  0  0  0  0  0  0  0  0  0
   -0.3658    2.1536    0.3375 S   0  0  0  0  0  0  0  0  0  0  0  0
   -0.7002    1.1607   -0.7376 O   0  0  0  0  0  0  0  0  0  0  0  0
   -1.6075    2.6969    0.8993 O   0  0  0  0  0  0  0  0  0  0  0  0
    0.3868    3.3544   -0.3295 O   0  0  0  0  0  0  0  0  0  0  0  0
    0.5720    1.5754    1.3302 O   0  0  0  0  0  0  0  0  0  0  0  0
    3.1903    2.2661    0.1871 H   0  0  0  0  0  0  0  0  0  0  0  0
   -0.5616   -2.5151   -0.7373 O   0  0  0  0  0  0  0  0  0  0  0  0
    0.6543   -0.5665   -1.9250 O   0  0  0  0  0  0  0  0  0  0  0  0
    2.8503    2.6678   -0.6295 O   0  0  0  0  0  0  0  0  0  0  0  0
    0.6016   -0.8341    2.0425 O   0  0  0  0  0  0  0  0  0  0  0  0
   -3.5889    1.0479   -0.1048 N   0  0  0  0  0  0  0  0  0  0  0  0
    1.3735   -1.2147    1.5089 H   0  0  0  0  0  0  0  0  0  0  0  0
    0.5587    0.1641    1.8168 H   0  0  0  0  0  0  0  0  0  0  0  0
   -0.2729   -1.2504    1.7561 H   0  0  0  0  0  0  0  0  0  0  0  0
    3.0081    1.9765   -1.2879 H   0  0  0  0  0  0  0  0  0  0  0  0
    1.3684    3.1181   -0.4627 H   0  0  0  0  0  0  0  0  0  0  0  0
   -3.1152    0.1582   -0.3546 H   0  0  0  0  0  0  0  0  0  0  0  0
   -2.8879    1.6410    0.3870 H   0  0  0  0  0  0  0  0  0  0  0  0
    0.2590   -1.3994   -1.5264 H   0  0  0  0  0  0  0  0  0  0  0  0
    1.6492   -0.4897   -1.7102 H   0  0  0  0  0  0  0  0  0  0  0  0
    0.1616    0.2122   -1.4700 H   0  0  0  0  0  0  0  0  0  0  0  0
    2.5390   -1.6190    0.5712 O   0  0  0  0  0  0  0  0  0  0  0  0
   -3.9608    1.7339   -1.3618 C   0  0  0  0  0  0  0  0  0  0  0  0
   -4.6234    1.0885   -1.9396 H   0  0  0  0  0  0  0  0  0  0  0  0
   -4.4577    2.6754   -1.1246 H   0  0  0  0  0  0  0  0  0  0  0  0
   -3.0440    1.9263   -1.9185 H   0  0  0  0  0  0  0  0  0  0  0  0
   -4.7204    0.7340    0.7926 C   0  0  0  0  0  0  0  0  0  0  0  0
   -5.2158    1.6599    1.0872 H   0  0  0  0  0  0  0  0  0  0  0  0
   -5.4192    0.0809    0.2686 H   0  0  0  0  0  0  0  0  0  0  0  0
   -4.3306    0.2220    1.6721 H   0  0  0  0  0  0  0  0  0  0  0  0
  1  3  1  0  0  0  0
  1  2  1  0  0  0  0
  3  5  1  0  0  0  0
  4  1  2  0  0  0  0
  6 32  2  0  0  0  0
  6  9  1  0  0  0  0
  7  6  2  0  0  0  0
  8  6  1  0  0  0  0
 10  8  1  0  0  0  0
 11 13  2  0  0  0  0
 11 15  1  0  0  0  0
 12 11  2  0  0  0  0
 14 11  1  0  0  0  0
 17  1  2  0  0  0  0
 18 30  1  0  0  0  0
 18 29  1  0  0  0  0
 19 16  1  0  0  0  0
 21 28  1  0  0  0  0
 21 37  1  0  0  0  0
 22 20  1  0  0  0  0
 24 20  1  0  0  0  0
 25 19  1  0  0  0  0
 26 14  1  0  0  0  0
 27 21  1  0  0  0  0
 33 35  1  0  0  0  0
 33 21  1  0  0  0  0
 34 33  1  0  0  0  0
 36 33  1  0  0  0  0
 37 38  1  0  0  0  0
 37 40  1  0  0  0  0
 39 37  1  0  0  0  0
M  RAD  5   2   2   9   2  15   2  23   2  31   2
M  END
$$$$
