3sa_3dma_3w.log
 OpenBabel02281909523D
Gaussian kemi/andersx/programs/g09/g09 # opt freq wb97xd/6-31++g(d,p) geom=conne
 60 51  0  0  0  0  0  0  0  0999 V2000
   -2.9204   -1.2031    0.2484 S   0  0  0  0  0  0  0  0  0  0  0  0
   -2.3785   -2.2530    1.1469 O   0  0  0  0  0  0  0  0  0  0  0  0
   -3.5608   -1.8910   -1.0158 O   0  0  0  0  0  0  0  0  0  0  0  0
   -4.0086   -0.4046    0.8441 O   0  0  0  0  0  0  0  0  0  0  0  0
   -2.8397   -2.2232   -1.6620 H   0  0  0  0  0  0  0  0  0  0  0  0
    2.7602   -1.6643   -0.1181 S   0  0  0  0  0  0  0  0  0  0  0  0
    2.6197   -1.1720   -1.5017 O   0  0  0  0  0  0  0  0  0  0  0  0
    3.7785   -2.9290   -0.1893 O   0  0  0  0  0  0  0  0  0  0  0  0
    3.4701   -0.7477    0.7851 O   0  0  0  0  0  0  0  0  0  0  0  0
    3.4203   -3.5754   -0.8133 H   0  0  0  0  0  0  0  0  0  0  0  0
    0.3795    2.3481   -0.0073 S   0  0  0  0  0  0  0  0  0  0  0  0
    0.0524    2.1484   -1.5597 O   0  0  0  0  0  0  0  0  0  0  0  0
   -0.8899    2.7531    0.6322 O   0  0  0  0  0  0  0  0  0  0  0  0
    1.4117    3.4026    0.0459 O   0  0  0  0  0  0  0  0  0  0  0  0
    0.9077    1.0513    0.4791 O   0  0  0  0  0  0  0  0  0  0  0  0
    3.3906    0.9347    0.2557 H   0  0  0  0  0  0  0  0  0  0  0  0
   -1.8208   -0.3175   -0.2294 O   0  0  0  0  0  0  0  0  0  0  0  0
    0.0297   -0.4132   -2.1288 O   0  0  0  0  0  0  0  0  0  0  0  0
    3.6956    1.8596   -0.1136 N   0  0  0  0  0  0  0  0  0  0  0  0
   -0.2462   -0.7181    2.2996 N   0  0  0  0  0  0  0  0  0  0  0  0
   -3.3927    2.1065   -0.2236 N   0  0  0  0  0  0  0  0  0  0  0  0
    0.2574   -0.2857    1.5021 H   0  0  0  0  0  0  0  0  0  0  0  0
   -0.8866   -1.4210    1.8873 H   0  0  0  0  0  0  0  0  0  0  0  0
    2.9095    2.5263    0.0537 H   0  0  0  0  0  0  0  0  0  0  0  0
   -3.7112    1.2097    0.2037 H   0  0  0  0  0  0  0  0  0  0  0  0
   -2.3916    2.2211    0.0567 H   0  0  0  0  0  0  0  0  0  0  0  0
   -0.5035   -0.5904   -1.3249 H   0  0  0  0  0  0  0  0  0  0  0  0
    0.9330   -0.7415   -1.9441 H   0  0  0  0  0  0  0  0  0  0  0  0
    0.0632    1.1726   -1.8149 H   0  0  0  0  0  0  0  0  0  0  0  0
    1.4938   -2.1848    0.4309 O   0  0  0  0  0  0  0  0  0  0  0  0
   -1.6876   -2.7135   -2.5686 O   0  0  0  0  0  0  0  0  0  0  0  0
   -1.0966   -1.9775   -2.7950 H   0  0  0  0  0  0  0  0  0  0  0  0
   -1.1763   -3.2745   -1.9407 H   0  0  0  0  0  0  0  0  0  0  0  0
   -0.5464   -3.8961   -0.4108 O   0  0  0  0  0  0  0  0  0  0  0  0
   -1.2301   -3.6006    0.2116 H   0  0  0  0  0  0  0  0  0  0  0  0
    0.2417   -3.3835   -0.1623 H   0  0  0  0  0  0  0  0  0  0  0  0
   -1.0655    0.3412    2.9314 C   0  0  0  0  0  0  0  0  0  0  0  0
   -0.4001    1.0589    3.4122 H   0  0  0  0  0  0  0  0  0  0  0  0
   -1.6295    0.8477    2.1513 H   0  0  0  0  0  0  0  0  0  0  0  0
   -1.7379   -0.1124    3.6604 H   0  0  0  0  0  0  0  0  0  0  0  0
    0.7032   -1.3639    3.2325 C   0  0  0  0  0  0  0  0  0  0  0  0
    1.4182   -0.6158    3.5765 H   0  0  0  0  0  0  0  0  0  0  0  0
    0.1462   -1.7694    4.0786 H   0  0  0  0  0  0  0  0  0  0  0  0
    1.2301   -2.1511    2.6979 H   0  0  0  0  0  0  0  0  0  0  0  0
    4.9071    2.2752    0.6192 C   0  0  0  0  0  0  0  0  0  0  0  0
    5.2542    3.2348    0.2328 H   0  0  0  0  0  0  0  0  0  0  0  0
    4.6638    2.3694    1.6773 H   0  0  0  0  0  0  0  0  0  0  0  0
    5.6787    1.5153    0.4891 H   0  0  0  0  0  0  0  0  0  0  0  0
    3.8833    1.7345   -1.5768 C   0  0  0  0  0  0  0  0  0  0  0  0
    2.9383    1.4208   -2.0173 H   0  0  0  0  0  0  0  0  0  0  0  0
    4.1870    2.7013   -1.9807 H   0  0  0  0  0  0  0  0  0  0  0  0
    4.6382    0.9739   -1.7764 H   0  0  0  0  0  0  0  0  0  0  0  0
   -3.4597    1.9870   -1.6978 C   0  0  0  0  0  0  0  0  0  0  0  0
   -4.4980    1.8391   -1.9980 H   0  0  0  0  0  0  0  0  0  0  0  0
   -3.0549    2.8951   -2.1457 H   0  0  0  0  0  0  0  0  0  0  0  0
   -2.8569    1.1292   -1.9924 H   0  0  0  0  0  0  0  0  0  0  0  0
   -4.1661    3.2354    0.3301 C   0  0  0  0  0  0  0  0  0  0  0  0
   -3.7910    4.1673   -0.0948 H   0  0  0  0  0  0  0  0  0  0  0  0
   -5.2218    3.1069    0.0867 H   0  0  0  0  0  0  0  0  0  0  0  0
   -4.0354    3.2523    1.4120 H   0  0  0  0  0  0  0  0  0  0  0  0
  1  4  2  0  0  0  0
  1  2  1  0  0  0  0
  3  1  1  0  0  0  0
  5  3  1  0  0  0  0
  6 30  2  0  0  0  0
  6  9  1  0  0  0  0
  7  6  2  0  0  0  0
  8  6  1  0  0  0  0
 10  8  1  0  0  0  0
 11 14  2  0  0  0  0
 11 15  2  0  0  0  0
 11 13  1  0  0  0  0
 12 11  1  0  0  0  0
 17  1  2  0  0  0  0
 18 28  1  0  0  0  0
 18 27  1  0  0  0  0
 19 24  1  0  0  0  0
 19 16  1  0  0  0  0
 19 45  1  0  0  0  0
 20 37  1  0  0  0  0
 20 41  1  0  0  0  0
 21 26  1  0  0  0  0
 21 25  1  0  0  0  0
 21 57  1  0  0  0  0
 22 20  1  0  0  0  0
 23 20  1  0  0  0  0
 29 12  1  0  0  0  0
 31 33  1  0  0  0  0
 32 31  1  0  0  0  0
 34 36  1  0  0  0  0
 34 35  1  0  0  0  0
 37 38  1  0  0  0  0
 37 40  1  0  0  0  0
 39 37  1  0  0  0  0
 41 42  1  0  0  0  0
 41 43  1  0  0  0  0
 44 41  1  0  0  0  0
 45 47  1  0  0  0  0
 46 45  1  0  0  0  0
 48 45  1  0  0  0  0
 49 19  1  0  0  0  0
 50 49  1  0  0  0  0
 51 49  1  0  0  0  0
 52 49  1  0  0  0  0
 53 21  1  0  0  0  0
 54 53  1  0  0  0  0
 55 53  1  0  0  0  0
 56 53  1  0  0  0  0
 57 60  1  0  0  0  0
 58 57  1  0  0  0  0
 59 57  1  0  0  0  0
M  RAD  3   2   2   9   2  13   2
M  END
$$$$
