25
2msa1ma-01
S       -1.87649900      -0.66301800      -0.07109000
O       -1.04883300      -0.07033500       1.03880300
O       -1.16667900      -1.71034800      -0.81106200
O       -2.42931400       0.43615800      -0.91770000
H       -1.37614500       1.68748200      -0.90270000
C       -3.27979100      -1.41672200       0.72505100
H       -3.80645700      -0.65194200       1.29551200
H       -3.92201500      -1.83045400      -0.05266200
H       -2.91046400      -2.20537200       1.38063400
S        2.29907200      -0.20729500       0.04953100
O        3.68237500      -0.05521600       0.44044600
O        1.68247900       0.88144000      -0.73221700
O        1.45301700      -0.44318300       1.35485100
H        0.44929300      -0.34584000       1.19996000
C        2.08294300      -1.70766200      -0.87448100
H        2.62672400      -1.58773000      -1.81217800
H        2.50367900      -2.52175400      -0.28424200
H        1.01295400      -1.85068300      -1.04803300
N       -0.59441200       2.38435400      -0.74306800
H        0.28580700       1.82472600      -0.73496800
C       -0.77506800       3.07332600       0.55641900
H        0.07861800       3.72314600       0.74796200
H       -1.69696400       3.65419300       0.53198200
H       -0.84425200       2.30081900       1.32149200
H       -0.55391500       3.03616000      -1.52325000
25
2msa1ma-02
S        1.89416500      -0.68590600       0.09131300
O        1.04267000      -0.31737400      -1.09962700
O        1.20931700      -1.59285500       1.01628600
O        2.43223300       0.55983900       0.71115400
C        3.29852600      -1.55391900      -0.57668300
H        2.93240400      -2.45491500      -1.06898300
H        3.80614400      -0.90092600      -1.28618100
H        3.95734300      -1.81025000       0.25331900
S       -2.27857600      -0.29005200      -0.05587100
O       -3.66979000      -0.25101700      -0.44735200
O       -1.65923000       0.96622100       0.41001300
O       -1.45013100      -0.84492000      -1.27411100
H       -0.44717000      -0.68821000      -1.17440500
C       -2.03318600      -1.50426100       1.21550500
H       -2.55837100      -1.14964600       2.10306100
H       -2.46163000      -2.44163900       0.86058400
H       -0.95890500      -1.59967000       1.39503200
N        0.62013200       2.33406700      -0.21036800
H        1.39318900       1.78511800       0.25102000
H        0.78057200       2.23481600      -1.21213200
C        0.53950200       3.74048800       0.23116200
H       -0.28830900       4.23642500      -0.27535400
H        0.36619800       3.75461000       1.30653800
H        1.47675500       4.24909200       0.00620200
H       -0.25817800       1.80906100      -0.00400500
25
2msa1ma-04
S        2.32080100      -0.21043100      -0.04744800
O        3.75079800      -0.31009200      -0.23192600
O        1.64009100      -1.21043600      -1.05069100
O        1.71405000       1.12495200      -0.19549600
H        0.27350600       1.91575400      -0.53808400
C        1.85533600      -0.82298700       1.55538900
H        2.20655200      -1.85173500       1.63566300
H        2.35290900      -0.18834700       2.28991400
H        0.76825500      -0.75142100       1.65099800
S       -1.84240700      -0.65915400      -0.03729500
O       -2.33190400       0.39087400      -0.98105500
O       -1.33540600      -0.07705400       1.22323500
O       -0.86319100      -1.58348100      -0.67693700
H        0.63447200      -1.29723400      -0.91727600
C       -3.25747000      -1.66700500       0.34751100
H       -4.00997500      -1.02797900       0.80945400
H       -3.63130100      -2.09870200      -0.58074300
H       -2.93632700      -2.44825900       1.03634900
N       -0.63029300       2.42548000      -0.64246400
H       -0.54238600       3.08963700      -1.40799800
C       -0.99118700       3.08145200       0.63711000
H       -1.94012600       3.60410000       0.51798600
H       -1.09480000       2.29232300       1.38190000
H       -0.20548500       3.77973000       0.92447700
H       -1.35310200       1.69027600      -0.88661100
