28
1msa1ma1dma-01
S       -1.60760800      -0.67149300      -0.02151800
O       -2.25344300       0.43948000      -0.75435900
O       -1.08108900      -0.28158700       1.30635800
O       -0.55775500      -1.36174400      -0.84600000
C       -2.86881400      -1.90537600       0.25035600
H       -3.65429800      -1.45385400       0.85685900
H       -3.26025900      -2.21240600      -0.71958300
H       -2.41688400      -2.75003300       0.77049000
H        2.62741800       1.04581200       0.89539900
H        1.18091500       0.07854000       1.30560800
H        3.26753500      -1.27441500       1.61627700
H        2.22473400      -1.93726900       0.35198300
H        4.71750900      -0.46446800      -0.07957600
H        4.23488200      -1.88186600      -0.73497900
H        0.95994000       1.32442300      -0.80327300
H        2.23638600       0.30931300      -1.41354800
C        2.02810000       0.17140300       0.62172300
C        2.87425700      -1.09428400       0.60739400
N        1.47669700       0.39159700      -0.73461400
N        3.91051900      -0.97513300      -0.42170500
H        0.74520200      -0.35015900      -0.92340500
N       -0.21799100       2.58998700      -0.67010300
H       -0.17122100       3.39283500      -1.28903100
C       -0.34288500       3.01526700       0.73155900
H       -1.16006100       3.72802800       0.89528600
H       -0.53973600       2.12799800       1.33907800
H        0.59137800       3.47738000       1.06630000
H       -1.05194600       2.04761500      -0.91881500
28
1msa1ma1dma-04
S        1.71459600       0.13541700       0.00657400
O        1.40740200      -0.54316000       1.28444100
O        1.24927000       1.53916700      -0.04915200
O        1.24295100      -0.65852100      -1.17900800
H       -0.37500600      -0.57494500      -1.38051000
C        3.49252700       0.17437700      -0.14341800
H        3.86029700      -0.85170900      -0.12840100
H        3.74513800       0.66354400      -1.08415100
H        3.88667900       0.73721300       0.70295900
H       -3.12627500      -1.49810900      -0.65797100
H       -2.00957500      -2.48216000      -1.63621400
H       -1.87606400      -3.15737700       0.69129800
H       -0.34070200      -2.45079800       0.18076500
H       -1.83894600      -1.65534600       2.34252500
H       -0.52059300      -0.90331300       1.70928000
H       -1.75250200      -0.24750700      -2.29530900
H       -1.63247400       0.38214900      -0.71606200
C       -2.07326300      -1.71907100      -0.85454100
C       -1.38594400      -2.21692700       0.41582700
N       -1.43111600      -0.47841400      -1.35827800
N       -1.46197600      -1.24028700       1.50024000
N       -1.68835400       1.65366900       0.31636600
H       -1.99537600       1.19400700       1.16993500
C       -2.39309800       2.91138100       0.07465900
H       -2.27729100       3.64003500       0.88665200
H       -2.00920600       3.36639800      -0.84212300
H       -3.46125400       2.72052200      -0.06464600
H       -0.67859300       1.80750000       0.40308200
28
1msa1ma1dma-02
S       -1.58780000      -0.78455100      -0.04799700
O       -2.28579300       0.30707300      -0.75946700
O       -1.10580600      -0.39746700       1.29964800
O       -0.48307900      -1.38669600      -0.86878200
C       -2.77822900      -2.09668800       0.17265300
H       -3.59918400      -1.70597900       0.77429500
H       -3.13440600      -2.40237900      -0.81129800
H       -2.28765100      -2.92660500       0.68158500
H        2.62250600       0.78551700       1.21763700
H        1.22807900      -0.30924200       1.43375600
H        3.37357000      -1.61108800       1.37416300
H        2.31819900      -2.00948900       0.01358000
H        4.73875700      -0.36823100      -0.11749100
H        4.28900000      -1.61505400      -1.07404800
H        0.85726200       1.34456600      -0.31121300
H        2.17470900       0.60047800      -1.18217700
C        2.04873500      -0.03127000       0.76796800
C        2.94263400      -1.21999800       0.44316400
N        1.43933600       0.46423500      -0.48642900
N        3.94116700      -0.82022900      -0.55171900
H        0.75449800      -0.26609600      -0.82425200
N       -0.40411400       2.43927700       0.15135500
H       -1.18681000       2.00779100      -0.34873000
C       -0.37201800       3.88802300      -0.05077900
H       -1.29505400       4.39380700       0.25922600
H        0.46194000       4.32351200       0.50719900
H       -0.20967200       4.10009100      -1.11092400
H       -0.58498700       2.20455500       1.12496800
28
1msa1ma1eda-01
S       -1.60760800      -0.67149300      -0.02151800
O       -2.25344300       0.43948000      -0.75435900
O       -1.08108900      -0.28158700       1.30635800
O       -0.55775500      -1.36174400      -0.84600000
C       -2.86881400      -1.90537600       0.25035600
H       -3.65429800      -1.45385400       0.85685900
H       -3.26025900      -2.21240600      -0.71958300
H       -2.41688400      -2.75003300       0.77049000
H        2.62741800       1.04581200       0.89539900
H        1.18091500       0.07854000       1.30560800
H        3.26753500      -1.27441500       1.61627700
H        2.22473400      -1.93726900       0.35198300
H        4.71750900      -0.46446800      -0.07957600
H        4.23488200      -1.88186600      -0.73497900
H        0.95994000       1.32442300      -0.80327300
H        2.23638600       0.30931300      -1.41354800
C        2.02810000       0.17140300       0.62172300
C        2.87425700      -1.09428400       0.60739400
N        1.47669700       0.39159700      -0.73461400
N        3.91051900      -0.97513300      -0.42170500
H        0.74520200      -0.35015900      -0.92340500
N       -0.21799100       2.58998700      -0.67010300
H       -0.17122100       3.39283500      -1.28903100
C       -0.34288500       3.01526700       0.73155900
H       -1.16006100       3.72802800       0.89528600
H       -0.53973600       2.12799800       1.33907800
H        0.59137800       3.47738000       1.06630000
H       -1.05194600       2.04761500      -0.91881500
28
1msa1ma1eda-04
S        1.71459600       0.13541700       0.00657400
O        1.40740200      -0.54316000       1.28444100
O        1.24927000       1.53916700      -0.04915200
O        1.24295100      -0.65852100      -1.17900800
H       -0.37500600      -0.57494500      -1.38051000
C        3.49252700       0.17437700      -0.14341800
H        3.86029700      -0.85170900      -0.12840100
H        3.74513800       0.66354400      -1.08415100
H        3.88667900       0.73721300       0.70295900
H       -3.12627500      -1.49810900      -0.65797100
H       -2.00957500      -2.48216000      -1.63621400
H       -1.87606400      -3.15737700       0.69129800
H       -0.34070200      -2.45079800       0.18076500
H       -1.83894600      -1.65534600       2.34252500
H       -0.52059300      -0.90331300       1.70928000
H       -1.75250200      -0.24750700      -2.29530900
H       -1.63247400       0.38214900      -0.71606200
C       -2.07326300      -1.71907100      -0.85454100
C       -1.38594400      -2.21692700       0.41582700
N       -1.43111600      -0.47841400      -1.35827800
N       -1.46197600      -1.24028700       1.50024000
N       -1.68835400       1.65366900       0.31636600
H       -1.99537600       1.19400700       1.16993500
C       -2.39309800       2.91138100       0.07465900
H       -2.27729100       3.64003500       0.88665200
H       -2.00920600       3.36639800      -0.84212300
H       -3.46125400       2.72052200      -0.06464600
H       -0.67859300       1.80750000       0.40308200
28
1msa1ma1eda-08
S        1.60527700      -0.30102600      -0.05390100
O        1.81307400       0.98629900      -0.74082400
O        0.84511800      -1.28150800      -0.89843400
O        0.98439300      -0.15404000       1.29069400
C        3.20721100      -1.04293700       0.20510100
H        3.68086600      -1.17480100      -0.76778700
H        3.79261100      -0.36912900       0.83110800
H        3.06485800      -2.00363900       0.70005100
H       -3.49000700      -0.21428300      -0.66034400
H       -2.88484100      -1.47733600      -1.76502300
H       -3.16004400      -2.34356000       0.50690200
H       -1.46437000      -2.40763700       0.00457900
H       -2.19630000      -1.41485000       2.31591800
H       -0.94965100      -0.73743800       1.50575800
H       -1.62423600       0.45157600      -2.18392100
H       -1.36256100       0.83964100      -0.54039100
C       -2.63574400      -0.85249500      -0.90220000
C       -2.27891700      -1.72931100       0.29501100
N       -1.49700800       0.02736300      -1.26832000
N       -1.95443600      -0.92105200       1.46551600
H       -0.59031400      -0.51365600      -1.27355500
N       -1.01723300       1.98834800       0.55788100
H       -1.78495800       2.12728800       1.20744700
C       -0.49616000       3.25386700       0.03139900
H       -0.20578300       3.96169400       0.81684100
H        0.38524900       3.02771900      -0.57277900
H       -1.25053500       3.73161900      -0.60137100
H       -0.28269400       1.48984000       1.06607600
