35
2fa1tma1eda-1
H       -1.67736400      -1.36372100       3.01197900
H        0.12005900      -1.12722500       0.21016400
C       -1.13389600      -1.03753200       2.10477400
O       -0.07903400      -1.64654100       1.81268000
O       -1.62086200      -0.07323900       1.44789900
H       -4.37624400       0.22866200      -1.83947600
H       -2.87876100       0.10709700       0.61741700
C       -3.47353900       0.05842700      -1.23686800
O       -3.69734700       0.26266600       0.02960000
O       -2.41902400      -0.27955100      -1.75632900
N        1.24193900       1.81476400       0.04150300
C        0.03034500       2.59440100       0.29439000
H       -0.44832200       2.84297900      -0.65754900
H       -0.66382600       1.99316900       0.88720500
H        0.25304300       3.53234300       0.83026800
C        1.86222000       1.39300600       1.29583700
H        1.15611300       0.78277600       1.86526100
H        2.74903900       0.78672100       1.08515000
H        2.16912700       2.25359800       1.91310300
C        2.18169700       2.54537600      -0.79803300
H        3.05613600       1.92197600      -1.00927800
H        1.70401200       2.80526200      -1.74696500
H        2.53050400       3.47556100      -0.31784400
H        2.89517300      -0.55203600      -0.93630400
H        3.13739600      -2.07123000      -1.77683200
H        1.10908200      -0.98851000      -2.61510000
H        0.64935500      -2.47216400      -1.75867600
H        0.59375000       0.27253900      -0.57669000
H       -0.76064200      -0.58670000      -1.10616000
H        2.03199500      -1.85708700       0.95417700
H        2.38448800      -3.23205600       0.15150500
C        2.49628700      -1.56880500      -1.04509900
C        1.08518400      -1.47642100      -1.63596000
N        2.62675500      -2.25044100       0.22923200
N        0.20362300      -0.69422900      -0.74650500
35
2fa1tma1eda-2
H        0.29709800      -3.75666500       2.05664100
H        0.08242600      -2.57475000      -0.56397400
C        0.31221600      -2.92911800       1.33399800
O        0.06123400      -3.33707000       0.12326200
O        0.54253300      -1.78146800       1.69055700
H        1.49108500      -1.58940800      -2.89379300
H        0.79500500       0.75994900      -0.56689600
C        1.01982200      -0.90913900      -2.15850800
O        1.46323600       0.25683400      -2.07807800
O        0.06818100      -1.37517800      -1.46351400
N       -2.33739500       0.95912500       0.05117600
C       -3.17694600       1.89346500       0.78869500
H       -3.05776900       1.72729700       1.86338100
H       -2.87870500       2.92101800       0.56163100
H       -4.24519100       1.77781800       0.53692400
C       -2.40389700       1.19359500      -1.39022700
H       -2.09981800       2.22111300      -1.60978300
H       -1.71844100       0.50887400      -1.89663600
H       -3.42177800       1.03736400      -1.78523200
C       -2.67886200      -0.42742700       0.36583400
H       -2.02150300      -1.09244700      -0.19919600
H       -2.53065500      -0.60917500       1.43458000
H       -3.72710300      -0.65766100       0.11154800
H        2.95437200       0.43049700       1.28534000
H        3.21967600       2.06330200       1.90448500
H        0.92407500       1.48832100       2.33064200
H        0.95128600       2.71796600       1.03899200
H        0.52850900      -0.20425000       0.75554200
H       -0.58216600       0.98250200       0.38579800
H        4.16563800       2.07997700      -0.21108200
H        2.85998300       1.41766900      -0.94691200
C        2.71764900       1.49433500       1.11548700
C        1.21782100       1.69026500       1.29718800
N        3.15586400       2.01150700      -0.17394500
N        0.45091500       0.77363700       0.42496600
35
2fa1tma1eda-3
H        1.11011400       4.11485700      -1.75285300
H        0.59606600       2.53236900       0.59047700
C        0.94387700       3.17445200      -1.20522900
O        0.73385000       3.40012200       0.06901500
O        0.95911800       2.09022600      -1.75809800
H        1.64597100       1.38592400       2.85841500
H        0.52496600      -1.26954300       1.16041300
C        1.08668800       0.69225300       2.20162800
O        1.22116300      -0.53507500       2.41523300
O        0.36807400       1.19712500       1.29398700
N       -2.41353000      -0.60066400      -0.13631100
C       -2.72497900      -0.03218900       1.17513300
H       -2.88140300      -0.83835300       1.89842700
H       -1.88229900       0.58012300       1.50585600
H       -3.63589900       0.58915100       1.14216900
C       -2.12140100       0.46062200      -1.10031900
H       -1.26623500       1.04467800      -0.75287100
H       -1.86520200       0.02017300      -2.06834100
H       -2.98409000       1.13323600      -1.24055300
C       -3.48518300      -1.46799300      -0.60744400
H       -3.20625700      -1.91841600      -1.56476900
H       -3.65733700      -2.26973000       0.11680900
H       -4.43223900      -0.91898100      -0.74641900
H        0.54855800      -1.41198800      -1.82018100
H        1.00638300      -0.03663900      -0.79732900
H        3.04025900      -1.27738100      -1.53746500
H        2.83167100      -1.39936900       0.21416400
H        2.29958100      -3.52101800      -1.72564100
H        3.13788500      -3.59351300      -0.32466300
H       -0.83715900      -1.38148100       0.10869300
H        0.28298300      -2.68391500       0.24397900
C        1.00794000      -1.12659000      -0.86810200
C        2.40989900      -1.70567300      -0.74797100
N        0.17327900      -1.66754500       0.23135600
N        2.33524900      -3.17017000      -0.77441400
