1sa_1b_1dma.log
 OpenBabel02281910023D
Gaussian kemi/andersx/programs/g09/g09 # opt freq 6-31++g(d,p) wb97xd
 23 20  0  0  0  0  0  0  0  0999 V2000
    2.0729   -0.6732   -0.0062 S   0  0  0  0  0  0  0  0  0  0  0  0
    3.3528   -1.3058   -0.2715 O   0  0  0  0  0  0  0  0  0  0  0  0
    1.1469   -0.5684   -1.1725 O   0  0  0  0  0  0  0  0  0  0  0  0
    1.3368   -1.6398    1.0487 O   0  0  0  0  0  0  0  0  0  0  0  0
    2.1719    0.6631    0.6600 O   0  0  0  0  0  0  0  0  0  0  0  0
    0.4101   -1.3115    1.1819 H   0  0  0  0  0  0  0  0  0  0  0  0
   -2.0730   -0.6730    0.0062 S   0  0  0  0  0  0  0  0  0  0  0  0
   -2.1719    0.6633   -0.6599 O   0  0  0  0  0  0  0  0  0  0  0  0
   -3.3529   -1.3057    0.2714 O   0  0  0  0  0  0  0  0  0  0  0  0
   -1.1470   -0.5685    1.1725 O   0  0  0  0  0  0  0  0  0  0  0  0
   -1.3369   -1.6396   -1.0488 O   0  0  0  0  0  0  0  0  0  0  0  0
   -0.4102   -1.3113   -1.1821 H   0  0  0  0  0  0  0  0  0  0  0  0
    0.0001    2.0674   -0.0000 N   0  0  0  0  0  0  0  0  0  0  0  0
    0.4499    2.8513   -1.1592 C   0  0  0  0  0  0  0  0  0  0  0  0
   -0.3826    3.4422   -1.5481 H   0  0  0  0  0  0  0  0  0  0  0  0
    0.7972    2.1477   -1.9166 H   0  0  0  0  0  0  0  0  0  0  0  0
    1.2721    3.5062   -0.8624 H   0  0  0  0  0  0  0  0  0  0  0  0
   -0.4496    2.8510    1.1593 C   0  0  0  0  0  0  0  0  0  0  0  0
   -1.2720    3.5059    0.8627 H   0  0  0  0  0  0  0  0  0  0  0  0
    0.3828    3.4420    1.5484 H   0  0  0  0  0  0  0  0  0  0  0  0
   -0.7969    2.1473    1.9166 H   0  0  0  0  0  0  0  0  0  0  0  0
   -0.8030    1.4474   -0.2991 H   0  0  0  0  0  0  0  0  0  0  0  0
    0.8033    1.4474    0.2990 H   0  0  0  0  0  0  0  0  0  0  0  0
  1  5  1  0  0  0  0
  1  4  1  0  0  0  0
  2  1  2  0  0  0  0
  3  1  2  0  0  0  0
  4  6  1  0  0  0  0
  7  9  2  0  0  0  0
  7 10  1  0  0  0  0
  8  7  2  0  0  0  0
 11  7  1  0  0  0  0
 12 11  1  0  0  0  0
 13 23  1  0  0  0  0
 13 18  1  0  0  0  0
 14 17  1  0  0  0  0
 14 13  1  0  0  0  0
 15 14  1  0  0  0  0
 16 14  1  0  0  0  0
 18 20  1  0  0  0  0
 18 21  1  0  0  0  0
 19 18  1  0  0  0  0
 22 13  1  0  0  0  0
M  RAD  2   5   2  10   2
M  END
$$$$
