5sa_1b_1dma.log
 OpenBabel02281910023D
Gaussian kemi/andersx/programs/g09/g09 # opt freq 6-31++g(d,p) wb97xd
 51 44  0  0  0  0  0  0  0  0999 V2000
   -4.6168   -0.1378   -0.3850 S   0  0  0  0  0  0  0  0  0  0  0  0
   -6.0322   -0.0385   -0.5895 O   0  0  0  0  0  0  0  0  0  0  0  0
   -4.0087    1.3141   -0.5411 O   0  0  0  0  0  0  0  0  0  0  0  0
   -4.1121   -0.7265    0.8549 O   0  0  0  0  0  0  0  0  0  0  0  0
   -3.0158    1.2880   -0.6305 H   0  0  0  0  0  0  0  0  0  0  0  0
   -0.5296    0.0458   -1.0126 S   0  0  0  0  0  0  0  0  0  0  0  0
    0.3223   -0.0580    0.2169 O   0  0  0  0  0  0  0  0  0  0  0  0
    0.3742    0.1243   -2.2109 O   0  0  0  0  0  0  0  0  0  0  0  0
   -1.3864    1.2773   -0.9383 O   0  0  0  0  0  0  0  0  0  0  0  0
   -1.4132   -1.1617   -1.1170 O   0  0  0  0  0  0  0  0  0  0  0  0
    1.2076    1.9824    1.9930 N   0  0  0  0  0  0  0  0  0  0  0  0
   -0.0175    2.8097    2.0872 C   0  0  0  0  0  0  0  0  0  0  0  0
   -0.2426    2.9813    3.1396 H   0  0  0  0  0  0  0  0  0  0  0  0
   -0.8357    2.2582    1.6252 H   0  0  0  0  0  0  0  0  0  0  0  0
    0.1564    3.7487    1.5616 H   0  0  0  0  0  0  0  0  0  0  0  0
    2.4187    2.6145    2.5589 C   0  0  0  0  0  0  0  0  0  0  0  0
    3.2565    1.9260    2.4538 H   0  0  0  0  0  0  0  0  0  0  0  0
    2.2418    2.8238    3.6145 H   0  0  0  0  0  0  0  0  0  0  0  0
    2.6187    3.5347    2.0098 H   0  0  0  0  0  0  0  0  0  0  0  0
    1.0276    1.0790    2.4604 H   0  0  0  0  0  0  0  0  0  0  0  0
    1.3635    1.7858    0.9981 H   0  0  0  0  0  0  0  0  0  0  0  0
   -3.9986   -0.9332   -1.5988 O   0  0  0  0  0  0  0  0  0  0  0  0
   -3.0229   -1.0847   -1.4479 H   0  0  0  0  0  0  0  0  0  0  0  0
    1.1129    3.5059   -1.8147 S   0  0  0  0  0  0  0  0  0  0  0  0
    1.6386    2.8683   -0.6132 O   0  0  0  0  0  0  0  0  0  0  0  0
    1.6255    4.7785   -2.2359 O   0  0  0  0  0  0  0  0  0  0  0  0
    1.2575    2.5001   -3.0205 O   0  0  0  0  0  0  0  0  0  0  0  0
   -0.4543    3.6643   -1.6394 O   0  0  0  0  0  0  0  0  0  0  0  0
    0.9812    1.5815   -2.7426 H   0  0  0  0  0  0  0  0  0  0  0  0
   -0.8468    2.7920   -1.3583 H   0  0  0  0  0  0  0  0  0  0  0  0
   -1.2224   -0.7067    3.1631 S   0  0  0  0  0  0  0  0  0  0  0  0
   -0.1641    0.1705    3.6384 O   0  0  0  0  0  0  0  0  0  0  0  0
   -1.9984   -1.4703    4.1024 O   0  0  0  0  0  0  0  0  0  0  0  0
   -0.6526   -1.7268    2.1054 O   0  0  0  0  0  0  0  0  0  0  0  0
   -2.1417    0.2527    2.2947 O   0  0  0  0  0  0  0  0  0  0  0  0
   -2.8943   -0.2148    1.8412 H   0  0  0  0  0  0  0  0  0  0  0  0
   -0.1618   -1.2371    1.3957 H   0  0  0  0  0  0  0  0  0  0  0  0
    1.1932   -3.2993   -1.9237 S   0  0  0  0  0  0  0  0  0  0  0  0
   -0.3734   -3.4560   -1.9919 O   0  0  0  0  0  0  0  0  0  0  0  0
    1.5173   -2.1785   -2.9876 O   0  0  0  0  0  0  0  0  0  0  0  0
    1.5145   -2.7790   -0.5931 O   0  0  0  0  0  0  0  0  0  0  0  0
    1.7870   -4.5189   -2.3870 O   0  0  0  0  0  0  0  0  0  0  0  0
   -0.8094   -2.6515   -1.5952 H   0  0  0  0  0  0  0  0  0  0  0  0
    1.1450   -1.2971   -2.7068 H   0  0  0  0  0  0  0  0  0  0  0  0
    3.5515   -0.7391    1.1836 S   0  0  0  0  0  0  0  0  0  0  0  0
    3.7836   -2.2273    0.7090 O   0  0  0  0  0  0  0  0  0  0  0  0
    2.9740   -0.0266   -0.1116 O   0  0  0  0  0  0  0  0  0  0  0  0
    4.8491   -0.1780    1.4538 O   0  0  0  0  0  0  0  0  0  0  0  0
    2.5174   -0.6897    2.2049 O   0  0  0  0  0  0  0  0  0  0  0  0
    1.9827   -0.1120   -0.1133 H   0  0  0  0  0  0  0  0  0  0  0  0
    2.9699   -2.5741    0.2621 H   0  0  0  0  0  0  0  0  0  0  0  0
  1  4  2  0  0  0  0
  2  1  2  0  0  0  0
  3  1  1  0  0  0  0
  5  3  1  0  0  0  0
  6  9  1  0  0  0  0
  6  7  1  0  0  0  0
  8  6  2  0  0  0  0
 10  6  2  0  0  0  0
 11 12  1  0  0  0  0
 11 20  1  0  0  0  0
 11 16  1  0  0  0  0
 12 13  1  0  0  0  0
 14 12  1  0  0  0  0
 15 12  1  0  0  0  0
 16 18  1  0  0  0  0
 17 16  1  0  0  0  0
 19 16  1  0  0  0  0
 21 11  1  0  0  0  0
 22 23  1  0  0  0  0
 22  1  1  0  0  0  0
 24 28  1  0  0  0  0
 24 25  2  0  0  0  0
 26 24  2  0  0  0  0
 27 29  1  0  0  0  0
 27 24  1  0  0  0  0
 28 30  1  0  0  0  0
 31 32  2  0  0  0  0
 31 33  2  0  0  0  0
 34 31  1  0  0  0  0
 35 31  1  0  0  0  0
 36 35  1  0  0  0  0
 37 34  1  0  0  0  0
 38 41  2  0  0  0  0
 39 38  1  0  0  0  0
 39 43  1  0  0  0  0
 40 44  1  0  0  0  0
 40 38  1  0  0  0  0
 42 38  2  0  0  0  0
 45 48  2  0  0  0  0
 45 49  2  0  0  0  0
 46 45  1  0  0  0  0
 47 45  1  0  0  0  0
 50 47  1  0  0  0  0
 51 46  1  0  0  0  0
M  RAD  2   7   2   9   2
M  END
$$$$
