28
1sa1msa1eda-01
S       -0.25230100       2.26353100      -0.02500800
O       -1.13601100       1.22319000      -0.56727600
O       -0.76580300       3.59390400       0.11662600
O        0.25920900       1.78099200       1.38553500
O        1.04518300       2.32563600      -0.91012900
H        1.46442000       1.41658000      -1.00634300
S        1.90267800      -1.13934400      -0.04343600
O        2.12332600      -0.05349900      -1.03262900
O        1.26490600      -2.34185900      -0.63151500
O        1.14739500      -0.65202600       1.15304900
H        0.62476400       0.84358800       1.33363200
C        3.50757500      -1.64209800       0.53247200
H        3.99304300      -0.77200100       0.97455900
H        3.37112200      -2.43018800       1.27276700
H        4.07169400      -2.00669100      -0.32586400
H       -1.96372600      -2.82316700       0.76745400
H       -1.22321200      -1.31308900       1.33918500
H       -3.73700800      -1.28000400       1.65106400
H       -3.18521800      -0.02445600       0.53515400
H       -4.56598200      -2.49181500      -0.20310500
H       -4.80940700      -0.96592200      -0.74013900
H       -0.42684300      -1.99368100      -0.85654400
H       -2.04050100      -1.79316200      -1.43303700
C       -1.91399500      -1.74219600       0.61194300
C       -3.29730400      -1.10512000       0.66151400
N       -1.34310000      -1.50821300      -0.73910300
N       -4.09888600      -1.62569400      -0.44832600
H       -1.16858100      -0.48986600      -0.84654800
28
1sa1msa1eda-02
S        2.89265500      -0.38338900      -0.00753000
O        3.41189700       0.46561900      -1.08117500
O        1.67933200      -1.15106400      -0.35502300
O        3.99030000      -1.53842400       0.26825700
O        2.71246600       0.34610600       1.27708100
H        4.86497000      -1.12601700       0.27008200
H        1.07165300       0.51555700       1.52753100
S       -2.89226700      -0.32213400       0.03329700
O       -3.31996600       0.64176800       1.05815900
O       -1.66353100      -1.08125400       0.43073500
O       -2.68430900       0.30308300      -1.31397500
H       -1.08869900       0.46367100      -1.54327800
C       -4.17999400      -1.53180800      -0.17376700
H       -5.07929600      -1.01085900      -0.50265600
H       -3.85388600      -2.25543200      -0.92035200
H       -4.34383800      -2.01460300       0.78963700
H       -1.36985100       1.96558400       0.59018000
H        0.11583600       2.77597100       1.12981600
H       -0.00911800       2.70087400      -1.29823600
H        1.43495000       1.85895700      -0.70610900
H        0.30698300       0.70395700      -2.48753100
H        0.44591300      -0.22586500      -1.13101200
H       -0.30960900       0.87101400       2.43884700
H       -0.49488900      -0.13605100       1.13602300
C       -0.28124800       1.88502700       0.63936800
C        0.34402000       1.82462200      -0.75092000
N        0.03505100       0.70700000       1.49418300
N       -0.03555400       0.61412800      -1.53215000
28
1sa1msa1eda-04
S       -1.06814200      -1.84363100      -0.12004600
O       -1.19534600      -0.79484000      -1.14030000
O       -0.86177800      -1.12669000       1.27966500
O       -2.13538400      -2.78865600       0.03291700
O        0.27041900      -2.61570000      -0.35848700
H        1.04186200      -1.97828900      -0.52527700
S        2.21236500       0.40329700      -0.00762200
O        2.12018500       1.52238300      -0.96382800
O        2.21880900      -0.94230900      -0.63933800
O        1.14866600       0.50056500       1.05320500
H       -0.04999000      -0.52713800       1.25455700
C        3.76821200       0.55870100       0.83992500
H        4.55956100       0.47785900       0.09465200
H        3.79364600       1.53261800       1.32831400
H        3.83949100      -0.24655300       1.57085500
H       -1.72691900       3.63434600      -0.57631600
H       -2.20168100       2.55379900      -1.91161300
H       -3.84612100       2.50015400       0.04559100
H       -3.14860000       0.92855300      -0.34617600
H       -2.74264800       2.42295400       2.06785300
H       -2.39997400       0.83968900       1.75288600
H        0.21672000       2.24113300      -1.15655900
H       -0.40689700       1.79302100       0.30574000
C       -1.89619100       2.59414800      -0.86436300
C       -2.91847700       1.91846000       0.05880800
N       -0.62174100       1.86245500      -0.70255300
N       -2.34335000       1.78493400       1.39317000
H       -0.72621000       0.87559600      -1.01302700
