19
1nta2ma-7
N       -1.30745100       1.14064400       0.61027700
H       -1.66106400       0.22944500       0.19844600
H       -1.81148600       1.35329900       1.46731600
C       -1.40291600       2.23447700      -0.37808800
H       -0.99382800       3.15001500       0.05016700
H       -0.80366600       1.94356500      -1.24087400
H       -2.44199800       2.39215500      -0.67093700
H       -0.26168900       0.93659800       0.83490800
N       -1.65805500      -1.37075400      -0.54169000
H       -2.42546000      -1.79906200      -1.04844600
C       -1.12488100      -2.29051100       0.47343200
H       -0.75797000      -3.23504300       0.05618800
H       -0.29147800      -1.80308700       0.98708800
H       -1.90015800      -2.51234400       1.21176000
H       -0.91699700      -1.15586700      -1.20876800
N        1.64003900       0.06887400      -0.06931300
O        0.86383200       0.07018600      -1.05844700
O        2.77798700      -0.36685300      -0.13218800
O        1.19703700       0.54231400       1.04015600
19
1nta2ma-4
N        0.63776800       1.52560000       0.58418100
H        0.83290700       2.23130100       1.28963600
C        0.89231900       2.02168900      -0.78409300
H        1.95340300       2.23670900      -0.92008800
H        0.57430300       1.24036700      -1.47486600
H        0.30387800       2.92162400      -0.96489200
H        1.21505100       0.65644100       0.77086400
N        1.85743600      -0.99212500       0.74890100
H        2.18219300      -1.44009400       1.59954300
C        2.78585700      -1.24700900      -0.35801200
H        2.96729000      -2.31264100      -0.54139300
H        2.36832300      -0.81667800      -1.27169100
H        3.74465900      -0.76085100      -0.15774900
H        0.94190500      -1.38146500       0.51768500
N       -1.82807200      -0.41316700      -0.07319400
O       -0.74011200      -0.78470600      -0.58696000
O       -2.86234700      -1.04458700      -0.20975900
O       -1.82528300       0.67104400       0.61356100
H       -0.40096200       1.20104800       0.65162000
19
1nta2ma-6
N        1.35904900      -0.99819100      -0.47333500
H        1.46356400       0.04872100      -0.60575500
H        0.39943100      -1.09596900       0.03322500
C        2.46853400      -1.58844300       0.29422200
H        2.29103000      -2.65391000       0.44327900
H        3.41624000      -1.44177500      -0.22610100
H        2.51254100      -1.09856300       1.26732200
H        1.24914400      -1.41857500      -1.39331200
N        1.10797400       1.77493700      -0.56654100
H        1.63966100       2.51149000      -1.01802300
C        0.83327300       2.11169100       0.83752100
H        0.27294400       3.04519000       0.96208800
H        0.24902300       1.30342300       1.28653700
H        1.77707900       2.19795800       1.38307100
H        0.22300700       1.67270200      -1.06370000
N       -1.72197900      -0.36556200      -0.02488300
O       -0.94966400      -1.05563800       0.73795500
O       -1.24441400       0.05973100      -1.10693000
O       -2.87089700      -0.14015100       0.31825300
