52
2dma2msa2sa-2
S       -0.44132700      -0.87358300       2.28307800
O       -0.99101000       0.33958300       1.68649800
O        0.42735600      -1.61682000       1.18670100
O        0.29810300      -0.75589800       3.51369500
O       -1.59154500      -1.91601500       2.47672500
H       -2.21097900      -1.91272300       1.68518500
S       -3.46611200      -0.83701900      -0.50683000
O       -3.07646600      -1.98867100       0.33547800
O       -4.10007700       0.25939500       0.24485200
O       -2.41422400      -0.37567900      -1.42341000
O       -4.58551000      -1.42933100      -1.52010400
H       -5.28516000      -1.84183200      -0.99467100
S        3.56946800      -1.04431400      -0.28377300
O        4.06520100       0.23922800      -0.84629600
O        2.74864100      -1.83036400      -1.23323900
O        2.87427900      -0.84627500       1.02392800
H        1.39168700      -1.30148900       1.18281400
C        5.02449400      -2.00453500       0.06304000
H        5.64235400      -1.43926100       0.76037400
H        4.70532800      -2.94929600       0.50284100
H        5.55006500      -2.16847700      -0.87762100
S        1.41454100       2.40512800      -0.26828000
O        0.63295100       1.24262100      -0.71379300
O        0.78853500       3.70919400      -0.43169700
O        2.78658200       2.44458100      -1.02541100
H        3.26731100       1.54698200      -0.98482500
C        1.85130700       2.16972200       1.43568300
H        0.91869600       2.11333800       1.99954000
H        2.39782100       1.22809700       1.52627800
H        2.45455900       3.02304800       1.74526500
N       -2.13018800       2.23556300       0.00795500
C       -2.32835100       2.88127800      -1.30931400
C       -2.06173800       3.17994100       1.14637400
H       -2.89526200       1.55189200       0.17569000
H       -1.48539000       3.54584800      -1.50036300
H       -2.37847300       2.09513100      -2.06164000
H       -3.26495700       3.44021300      -1.28955400
H       -1.25243900       3.88831700       0.96663200
H       -3.01547200       3.70389400       1.22268500
H       -1.87765700       2.60328800       2.05228900
H       -1.27198700       1.66569900      -0.02603600
N        0.10125300      -1.44355900      -1.78377000
C       -0.43032400      -2.82391000      -1.74684000
C        0.15534000      -0.84971800      -3.13688000
H       -0.49238700      -0.84877500      -1.19522100
H        0.23227500      -3.46713100      -2.32713000
H       -0.46069100      -3.14919600      -0.70795100
H       -1.43632200      -2.82438500      -2.16556700
H        0.80145900      -1.46537500      -3.76372000
H       -0.85577600      -0.80955700      -3.54230600
H        0.56752500       0.15472600      -3.04648100
H        1.06441200      -1.45144000      -1.39671000
52
2dma2msa2sa-4
S        1.77000500       1.93733800       0.46083300
O        1.97481700       1.37575300      -0.92770900
O        0.92584400       3.13424000       0.41971900
O        1.35669000       0.89366500       1.40043500
O        3.20063200       2.47417900       0.91815800
H        3.79558200       1.69907300       1.02710100
S       -0.89571300      -0.12903400      -1.90041400
O       -1.04795500      -0.03498000      -0.41006700
O        0.05924700      -1.15413400      -2.29152700
O       -2.23200900      -0.18192100      -2.53350100
O       -0.33888500       1.30412000      -2.35589300
H        0.56753400       1.40901100      -1.97262200
S       -3.98905900      -1.02815200       0.47849400
O       -3.90580600       0.40868800       0.73965700
O       -3.04251600      -1.89366100       1.17352600
O       -3.99792600      -1.31144900      -1.06681400
H       -3.27653600      -0.82936000      -1.61169200
C       -5.63596600      -1.58070100       0.85615900
H       -5.77607000      -1.44634800       1.92907600
H       -6.34175200      -0.97277200       0.29133900
H       -5.71743700      -2.63305400       0.58546800
S        4.15648200      -1.05761100       0.07613800
O        3.23549700      -1.99294000       0.72387400
O        4.61613400       0.07957200       0.87743100
O        3.57173600      -0.56235200      -1.28730600
H        2.90119200       0.20964300      -1.15905800
C        5.56406600      -1.96658000      -0.49886300
H        6.04141000      -2.39803200       0.38117500
H        5.21293600      -2.74636900      -1.17416300
H        6.23319400      -1.27387100      -1.00794500
N       -1.76030300       2.46681400       0.45506100
C       -2.10216300       2.67256800       1.87818700
C       -2.69849600       3.08028900      -0.51013300
H       -0.79565800       2.82008800       0.30372200
H       -3.06974200       2.21305600       2.07482400
H       -1.32826300       2.19917100       2.48297500
H       -2.12661900       3.74327500       2.08677000
H       -3.68047000       2.62909000      -0.37041100
H       -2.73766200       4.15708700      -0.33776800
H       -2.33362400       2.87243100      -1.51640600
H       -1.69685300       1.44853600       0.24895600
N        0.40141300      -1.80972000       1.05610700
C        0.03610300      -1.73765100       2.48720400
C        0.00689800      -3.07254900       0.39071800
H       -0.05847800      -1.02390700       0.54876000
H        0.50815700      -2.56731800       3.01645800
H        0.39747900      -0.78804600       2.88008200
H       -1.04962000      -1.80231900       2.56633800
H        0.53782900      -3.90337500       0.85817600
H       -1.07168900      -3.19135600       0.49991800
H        0.26613800      -2.99254200      -0.66501600
H        1.41716200      -1.67459500       0.95546100
52
2dma2msa2sa-3
S       -1.45578300       1.86863400      -0.49812100
O       -1.27026400       0.67644900      -1.33563800
O       -1.77680500       1.48061800       0.92635700
O       -0.38844600       2.86812200      -0.56201600
O       -2.74919800       2.62672900      -1.03214800
H       -3.48788100       1.97624000      -1.03006600
S        0.88468000       0.08416900       2.06753100
O        0.97108000       0.13323400       0.60901800
O        0.11147700      -0.98961700       2.64902500
O        2.32647200       0.14933900       2.65562100
O        0.35174800       1.48395200       2.58351800
H       -0.50095300       1.65103100       2.09911500
S        3.61024600      -1.31145300      -0.44278200
O        3.39328100      -0.23291400      -1.44344100
O        2.52995600      -2.32379600      -0.44162900
O        3.92727900      -0.76870800       0.91345900
H        2.97574500      -0.25499400       1.96745900
C        5.09381300      -2.16331800      -0.93831100
H        5.91221500      -1.44370400      -0.94889500
H        5.28389900      -2.95429500      -0.21295000
H        4.92875600      -2.57973000      -1.93205900
S       -4.18032700      -0.79867300      -0.16744500
O       -3.68452400      -1.79493000      -1.10385600
O       -4.51263100       0.53424700      -0.67801800
O       -3.18966100      -0.67105700       1.05308700
H       -2.63777400       0.18478700       1.02572300
C       -5.61309400      -1.45097600       0.65223800
H       -6.36858300      -1.62072700      -0.11551500
H       -5.33449800      -2.38814400       1.13364500
H       -5.95497800      -0.71879900       1.38274900
N        2.26429700       2.18232700      -0.89439200
C        3.04906400       2.76057500       0.21710300
C        2.49885500       2.83294400      -2.19963200
H        2.51288900       1.17342100      -0.98305400
H        2.81263800       3.82143200       0.30949100
H        2.78684600       2.24410600       1.13914200
H        4.11078500       2.62091400       0.01040600
H        2.24286200       3.89049100      -2.12484800
H        3.54724700       2.71015900      -2.47403500
H        1.86324500       2.35432800      -2.94399700
H        1.25407700       2.25321600      -0.67059400
N       -0.16841600      -1.89992200      -0.94193900
C       -0.43297200      -2.23641700      -2.35644500
C       -0.74460000      -2.86559700       0.02365600
H        0.85652600      -1.86079200      -0.77038000
H       -1.51144600      -2.23188200      -2.51808400
H        0.03977000      -1.48298700      -2.98589100
H       -0.01184800      -3.21976400      -2.57023300
H       -1.81360200      -2.95407600      -0.16674100
H       -0.24435100      -3.82537000      -0.11365300
H       -0.56627600      -2.49180000       1.03166100
H       -0.53204900      -0.94933000      -0.76936500
