40
3sa3am1ma-30
S        2.68117400       0.93832000       0.33296400
O        2.24361100       0.34421400      -1.09954600
O        3.89286100       1.68672900       0.07406400
O        2.85479000      -0.27835500       1.20096700
O        1.52560900       1.71809500       0.84246200
H        3.22894900      -1.65342300       0.25180100
H        1.42199500      -0.21848100      -0.97964100
S       -0.32812400      -2.51021200      -0.46684600
O       -0.83651200      -2.67906500       0.94355500
O        0.86319200      -3.37700900      -0.71276300
O       -1.41940200      -2.77830200      -1.43422900
O        0.12068700      -1.05051900      -0.58787800
H       -0.90067700       0.14744800      -0.76991600
H       -2.89617400      -2.34430200      -0.70601200
S       -2.45230600       1.33437400       0.23301300
O       -1.37639100       1.02135800      -0.91596000
O       -3.71818600       0.68056400      -0.15903800
O       -1.90639200       0.76176400       1.48314500
O       -2.51424200       2.80789600       0.21250000
H       -0.96488800       3.39785900      -0.13411800
H       -0.34474700       0.11677900       2.00023000
N        0.27339600      -0.63632100       2.35805000
H        0.23809600      -0.65819200       3.37234800
H        1.24390700      -0.48400400       2.02879900
H       -0.10472300      -1.52248100       1.93924800
N       -3.48805600      -2.01556900       0.09892000
H       -2.87593000      -2.18906600       0.90574600
H       -4.35294900      -2.54145300       0.17475900
H       -3.67043900      -0.98175100       0.01136800
N        3.25273900      -2.37817500      -0.50463200
H        3.49028900      -1.89568900      -1.36994800
H        2.26082000      -2.80612500      -0.59589000
H        3.93980300      -3.09930800      -0.30496900
N        0.03721900       3.61660200      -0.36221300
H        0.62863300       2.88866700       0.11019400
H        0.27467500       4.52203900       0.03675700
C        0.27254000       3.57909700      -1.82558700
H       -0.04855500       2.60183200      -2.18123000
H       -0.31444500       4.36009500      -2.30843000
H        1.33511900       3.72054300      -2.02277900
40
3sa3am1ma-1
S        3.29940000      -0.97733900       0.47275300
O        3.23844000      -0.55079600      -0.97796000
O        2.15186000      -1.86599200       0.75493800
O        4.60317800      -1.42518800       0.90329500
O        3.04000700       0.39795100       1.28367700
H        2.11938500       0.74238500       1.10292500
H        3.91304600       2.32448800      -0.08491000
S       -2.59612100      -1.78774600      -0.32674000
O       -1.26722300      -2.42474000      -0.45041900
O       -3.74963100      -2.60114100      -0.63417900
O       -2.67577800      -1.07696500       1.00526700
O       -2.63895600      -0.58068700      -1.40488700
H       -1.83196000       0.00057000      -1.31038100
H       -1.08313400      -1.31494500       1.77680500
S       -0.05227700       1.96604800      -0.26767100
O       -0.48141600       0.89964900      -1.25849600
O        0.60001000       1.27610100       0.91607700
O        0.94703100       2.86485300      -0.90933500
O       -1.25354200       2.71206300       0.18881600
H       -2.67119500       1.95815600       0.30651700
N        3.48181800       2.14967400      -0.99160500
H        3.49324200       1.10686700      -1.13455600
H        3.99021200       2.63482100      -1.72522100
H        2.45763100       2.46819100      -0.96101500
N       -0.12859800      -1.05208900       2.09058900
H        0.02964700      -0.06980700       1.76768700
H        0.60740600      -1.61092900       1.62091100
H       -0.03410300      -1.12687300       3.09885600
N        0.78626300      -1.37974900      -1.97691400
H        0.40069900      -0.41646100      -1.84351200
H        0.18989900      -1.99177000      -1.38956200
H        0.73093600      -1.66579600      -2.94967200
H        1.76836500      -1.34860000      -1.64429400
N       -3.58922100       1.44328800       0.44054600
H       -3.34306900       0.49125000       0.80071700
H       -3.99148700       1.28343200      -0.48308800
C       -4.49791500       2.18273700       1.33961200
H       -3.99899400       2.32041400       2.29827800
H       -4.72082400       3.15819100       0.90802100
H       -5.41792200       1.61586800       1.48170300
40
3sa3am1ma-5
S       -0.12064800       1.56251400      -0.64469000
O       -0.24185900       1.67589000       0.86954700
O        0.67508200       2.71261900      -1.15396200
O        0.60556400       0.27047800      -0.94667600
O       -1.48888300       1.50504400      -1.22819200
H       -2.14764100      -0.04593700      -1.30466800
H        2.19867200       0.06315800      -1.15970500
S        3.45997300      -0.84466800       0.31098600
O        3.16239200      -0.19813100      -1.14102200
O        4.82825500      -1.30265400       0.25659600
O        3.17573400       0.26090300       1.27579100
O        2.42727500      -1.91703800       0.48605700
H        1.16046200      -1.22119200       1.48131600
H        3.13943900       1.74297100       0.55652200
S       -2.92778000      -1.62896500      -0.00198700
O       -2.50832900      -0.96879400      -1.40688000
O       -3.88208800      -2.66296200      -0.32829600
O       -1.63514600      -2.17000500       0.55849500
O       -3.42293100      -0.52792100       0.86018800
H       -3.17211500       1.06088000       1.03071800
H       -0.46807900      -2.55463700      -0.62915200
N        0.31017300      -0.81869800       1.92992400
H        0.22385700       0.17802200       1.63312000
H        0.38584300      -0.89431900       2.93934100
H       -0.52717400      -1.32632500       1.56818300
N        0.32997900      -2.38509900      -1.28607000
H        1.22714300      -2.47147300      -0.77259800
H        0.24637800      -1.38418600      -1.53925000
H        0.28454300      -2.99214400      -2.09822800
N        3.11869300       2.59835900      -0.06777100
H        3.37660300       3.43165100       0.45307500
H        2.14420500       2.70548200      -0.48854300
H        3.78595800       2.43564800      -0.81990400
N       -2.91692000       2.04920700       1.28833600
H       -1.87328000       2.07510200       1.17512400
H       -3.14639400       2.17945000       2.27102300
C       -3.60102100       3.04152200       0.42648400
H       -3.27952600       2.85865800      -0.59746500
H       -4.67954000       2.91456100       0.51830300
H       -3.31194700       4.04760000       0.73086300
