34
1pa1sa
S        4.34464200      -0.33728600      -0.34692500
O        5.42744600      -0.91123000      -1.09600800
O        3.64887100       0.85046000      -0.81303300
O        3.30802500      -1.46342300      -0.03864000
H        2.42662800      -1.06262800       0.28393100
O        4.88118600       0.08356200       1.11228500
H        5.53550300      -0.56590600       1.40868500
C       -1.93764900       0.79390700      -0.16061500
C       -0.84714400       0.92204400       0.97382100
C       -1.62222900      -0.10831600       1.80699800
C       -2.86440700       0.16370500       0.93191400
H       -0.88429700       1.92812100       1.40034900
H       -1.70670900       0.08218100       2.87905000
H       -1.21893200      -1.11398800       1.65608100
H       -3.47511800       0.95984900       1.37060200
C       -1.53582200      -0.19051400      -1.25833700
H       -2.39523400      -0.41116200      -1.89988800
H       -0.75645700       0.24281000      -1.89410700
H       -1.15351100      -1.13569300      -0.85962100
C       -2.39248600       2.11491900      -0.76311900
H       -1.57787300       2.57651300      -1.33184100
H       -3.24584800       1.95711600      -1.42802800
H       -2.70452400       2.81685400       0.01689100
C        0.56190800       0.62279100       0.57977300
O        1.16442000       1.63475700      -0.01002100
O        1.08865400      -0.47714600       0.75113800
H        2.07302300       1.38839400      -0.30227800
C       -3.75377700      -1.02329900       0.60783600
H       -3.19408400      -1.83537900       0.13105500
H       -4.15930900      -1.45134900       1.53342200
C       -4.92617800      -0.68448200      -0.27633300
O       -5.23626800       0.42125300      -0.65670500
O       -5.63243000      -1.78237200      -0.61145700
H       -6.37005700      -1.49057100      -1.16562300
41
1pa2sa
S       -5.02287500       1.47710500       0.15069200
O       -4.68123800       0.49443400       1.17974100
O       -5.92948100       2.54197500       0.43579800
O       -3.66584100       2.12496600      -0.36534700
H       -2.94848800       1.45623700      -0.38372200
O       -5.57383200       0.70118300      -1.11330000
H       -5.02417000      -0.09670000      -1.28723400
S       -2.58966900      -1.46012700      -0.41504400
O       -3.71110800      -1.32933800      -1.32407300
O       -1.60884200      -2.50324200      -0.63481700
O       -1.87127100      -0.05796600      -0.40142500
H       -0.90778600      -0.12436600       0.01069800
O       -3.09920800      -1.63826900       1.06075000
H       -3.76040800      -0.91932800       1.25155600
C        3.72320600      -0.71834000       0.01304800
C        2.62371800      -0.88748600       1.13660700
C        3.02972300       0.47751100       1.70906000
C        4.36338600       0.36875100       0.93926700
H        2.89822400      -1.72192900       1.78742900
H        3.07759400       0.56454800       2.79643200
H        2.38863500       1.27277500       1.31760000
H        5.12546100      -0.11152400       1.56188700
C        3.15685400      -0.15028300      -1.28750400
H        3.97273300       0.14508900      -1.95487700
H        2.56655800      -0.90943300      -1.81198800
H        2.51421300       0.72111800      -1.12587400
C        4.55251900      -1.96366800      -0.26153800
H        3.93432500      -2.74269800      -0.72090700
H        5.38224800      -1.72597400      -0.93238100
H        4.97778300      -2.36599000       0.66339500
C        1.22522300      -1.09349700       0.66648900
O        0.95588700      -2.33793100       0.34108800
O        0.41506500      -0.16688400       0.55399000
H        0.04082900      -2.43888000      -0.00653900
C        4.93009000       1.65178800       0.35855000
H        4.21880900       2.14150200      -0.31602800
H        5.11947200       2.37631600       1.16023500
C        6.22286300       1.46115600      -0.39227500
O        6.81615000       0.41602700      -0.53163600
O        6.67324700       2.61847600      -0.91306700
H        7.50294800       2.42454200      -1.37188200
48
1pa3sa
S       -1.88455400       2.80094300      -0.00166000
O       -1.08375900       1.92753000       1.04599400
O       -1.23900000       4.09907700       0.04042300
O       -1.60185600       2.11311500      -1.37702800
O       -3.31146400       2.67595200       0.23567500
S       -0.46299000      -2.94591000      -0.22487200
O        0.37116100      -3.69510500      -1.30749400
O       -1.79950000      -3.75721800      -0.38157200
O        0.12458700      -3.15552700       1.08847400
O       -0.66999800      -1.55487000      -0.61582200
C        3.41960700       1.15325500       0.67329000
C        3.15188900       1.92096600      -0.67603500
C        3.51293200       0.64161800      -1.44970400
C        4.27170800       0.16980600      -0.19162500
H        3.89573200       2.71466300      -0.79932100
H        4.08495500       0.75528700      -2.37247600
H        2.62208900       0.04479000      -1.65649600
H        5.28819300       0.57995200      -0.23046900
C        2.13830200       0.55128600       1.25224600
H        2.37290000      -0.13048200       2.07354100
H        1.49734200       1.34416600       1.64988500
H        1.55084800       0.00247500       0.50841400
C        4.17286600       1.92938500       1.74379200
H        3.54757500       2.72928800       2.15288700
H        4.45735800       1.26689100       2.56904600
H        5.08450200       2.38230600       1.34009700
C        1.78920000       2.51093100      -0.84761000
O        1.58551300       3.57671300      -0.09250100
O        0.93811600       2.02608800      -1.58715100
H        0.65457000       3.88413700      -0.13603900
C        4.45131600      -1.31647700       0.15892200
H        5.12610900      -1.75471000      -0.58366300
H        4.91943700      -1.40355800       1.14267000
C        3.20134000      -2.15166000       0.14144300
O        2.61203000      -2.43682300      -0.89934200
O        2.80859600      -2.55483000       1.33431300
H        1.90978100      -2.94915500       1.29508600
H       -0.60244400       2.12784100      -1.55385000
H       -1.55485300       1.06913100       1.21182200
H        1.30499800      -3.31171100      -1.24071100
H       -2.57058100      -3.26117900      -0.01284600
S       -3.51140100      -0.69193500       0.35824300
O       -2.97498200      -0.37114200      -1.08644500
O       -4.77228000       0.23450400       0.37492900
H       -2.05072200      -0.71827200      -1.15714900
H       -4.46336200       1.17270500       0.33194700
O       -3.94032500      -2.07424600       0.43639300
O       -2.54512200      -0.25431700       1.35764500
55
1pa4sa
S        1.19844200      -3.72412300       0.25133300
O        0.99636500      -2.65936600       1.39884100
O        0.17340100      -4.72574500       0.47257700
O        0.92699900      -2.93769900      -1.06469100
O        2.59063600      -4.14342800       0.20305300
S        3.02187000       2.48184300      -0.06544500
O        2.93711600       3.99800400      -0.42152700
O        4.50563800       2.45618400       0.43247200
O        2.11162200       2.17890100       1.03091200
O        2.89062500       1.66417900      -1.26300700
S       -0.75839000       3.80866400       0.22028500
O       -0.46850800       2.74309500       1.34460700
O       -2.03471100       4.40265300       0.56949100
O        0.39603500       4.67420900       0.04969500
O       -0.89015700       2.97560500      -1.09158900
H       -1.79593800       2.50871800      -1.11910000
C       -4.38907800      -1.37525000       0.50342600
C       -3.89882800      -2.28748900      -0.68596300
C       -4.15020000      -1.12122300      -1.65514700
C       -5.10090700      -0.52469600      -0.59598300
H       -4.60589000      -3.11110900      -0.82236300
H       -4.57617600      -1.36589200      -2.63025000
H       -3.24870400      -0.52410100      -1.79427100
H       -6.09623900      -0.96159500      -0.74279500
C       -3.23501900      -0.65550800       1.20291900
H       -3.61694500       0.14056600       1.85097700
H       -2.68294100      -1.35391700       1.84065900
H       -2.52355300      -0.21560200       0.49912700
C       -5.29512800      -2.04783600       1.52462300
H       -4.73850800      -2.78643400       2.11051800
H       -5.70586400      -1.30714200       2.22016500
H       -6.13246300      -2.55983500       1.03932000
C       -2.52306700      -2.85794200      -0.57442800
O       -2.46192200      -3.91986800       0.20420900
O       -1.54525600      -2.35704900      -1.12817500
H       -1.53961700      -4.24953900       0.30220200
C       -5.33592800       0.97820100      -0.43680900
H       -5.87892000       1.33539400      -1.32144600
H       -5.97792600       1.16664000       0.42736300
C       -4.13025700       1.87226300      -0.33009400
O       -3.16836600       1.80036300      -1.09399600
O       -4.23313200       2.76831500       0.62826200
H       -3.46251400       3.38254500       0.63446600
H       -0.06809700      -2.70505000      -1.12638400
H        1.70552900      -1.97025500       1.32913000
H        0.47345400       2.43586500       1.28265300
H        2.00682200       4.32272500      -0.27532400
H        4.86795100       1.53480000       0.36600400
S        4.11594600      -1.09373400      -0.04030900
O        3.51942200      -0.95518500      -1.49211800
O        4.69240400      -2.53422500      -0.10745200
H        3.17099600      -0.03510200      -1.58990700
H        3.95556600      -3.20455000      -0.02731400
O        5.21972700      -0.16771600       0.13765900
O        3.03888300      -1.00155800       0.93796000
54
2pa
C       -3.04725400      -0.60946300       0.93158700
C       -2.88422500      -1.69079600      -0.20428800
C       -3.41889700      -0.68794900      -1.24161400
C       -3.86583800       0.24733200      -0.09470400
H       -3.54506300      -2.54454300      -0.02321900
H       -4.20791700      -1.04916600      -1.90483100
H       -2.61145800      -0.27538900      -1.84578000
H       -4.93203700       0.09621600       0.10930500
C       -1.72527800       0.00104500       1.38496500
H       -1.89457700       0.90189700       1.98146500
H       -1.16805300      -0.71514200       1.99555300
H       -1.08698400       0.27591700       0.53990700
C       -3.84575600      -1.07875100       2.14191600
H       -3.27833200      -1.81966900       2.71504200
H       -4.07101500      -0.23506100       2.80451900
H       -4.79476900      -1.53544500       1.84122300
C       -1.49414700      -2.21272700      -0.43475500
O       -1.02196700      -2.93566700       0.56636900
O       -0.84256100      -1.96057200      -1.44229300
H       -0.05713100      -3.11464000       0.42183200
C       -3.68467400       1.77378300      -0.20063400
H       -4.32181100       2.12721200      -1.02027300
H       -4.02615000       2.25318500       0.71989900
C       -2.28894700       2.28225500      -0.47186700
O       -1.67772100       3.01009000       0.30436700
O       -1.78668900       1.87354500      -1.62075700
H       -0.81044100       2.06208300      -1.65084900
C        3.04704300       0.60930800       0.93130800
C        2.88425100       1.69079500      -0.20446700
C        3.41907000       0.68802100      -1.24178300
C        3.86599000      -0.24724900      -0.09484700
H        3.54509800       2.54449900      -0.02322800
H        4.20812800       1.04931300      -1.90491500
H        2.61171200       0.27543400      -1.84603800
H        4.93213400      -0.09603100       0.10938000
C        1.72507900      -0.00165000       1.38414900
H        1.89446500      -0.90238400       1.98080800
H        1.16728400       0.71436500       1.99441300
H        1.08729700      -0.27690900       0.53881700
C        3.84512700       1.07849900       2.14195200
H        3.27743400       1.81924600       2.71503300
H        4.07030000       0.23472700       2.80448000
H        4.79417000       1.53536800       1.84161900
C        1.49423800       2.21283800      -0.43506000
O        1.02211200       2.93591500       0.56598900
O        0.84262200       1.96060600      -1.44256000
H        0.05727900       3.11490400       0.42148000
C        3.68487200      -1.77368200      -0.20079600
H        4.32188600      -2.12710000      -1.02053700
H        4.02646900      -2.25309300       0.71968600
C        2.28907000      -2.28207700      -0.47178300
O        1.67788900      -3.00981300       0.30458200
O        1.78672400      -1.87347400      -1.62067000
H        0.81047800      -2.06202400      -1.65067100
61
2pa1sa
C       -3.25479900      -2.21667200       0.60150200
C       -2.62086200      -2.53394700      -0.79779300
C       -3.19095900      -1.21263500      -1.34248400
C       -4.19845700      -1.23978400      -0.17151700
H       -3.11423200      -3.40809800      -1.23834500
H       -3.59263900      -1.20976700      -2.35693100
H       -2.45322800      -0.40908200      -1.26084600
H       -5.07071800      -1.82608800      -0.48306600
C       -2.26232700      -1.53736600       1.54530500
H       -2.78248400      -1.07133900       2.38667600
H       -1.56368000      -2.27921300       1.94318900
H       -1.68099200      -0.75390600       1.05098100
C       -3.94603200      -3.37575900       1.30636700
H       -3.21172800      -4.11408700       1.64368500
H       -4.49562800      -3.01887500       2.18524700
H       -4.65650400      -3.88007800       0.64253700
C       -1.14136900      -2.76406000      -0.86449600
O       -0.73308500      -3.76163600      -0.10522500
O       -0.38561700      -2.08058300      -1.54954800
H        0.26314000      -3.77784100      -0.06457100
C       -4.75738100       0.04424000       0.47395500
H       -5.67452700       0.33349200      -0.04438800
H       -4.99761000      -0.15315300       1.52258800
C       -3.82048700       1.21917700       0.42939000
O       -2.99645700       1.45220400       1.30995100
O       -3.96179000       1.96375500      -0.64874600
H       -3.32312900       2.71447300      -0.64731500
C        3.77110300      -0.11994200       1.03022700
C        4.03471300       1.00028000      -0.05760700
C        4.34879100      -0.09802100      -1.08793200
C        4.50284800      -1.11250500       0.06417400
H        4.89819300       1.60790800       0.22338500
H        5.22418500       0.06534000      -1.72051200
H        3.48028300      -0.30330900      -1.71289500
H        5.55574600      -1.15289500       0.36756200
C        2.28776100      -0.40712100       1.26407300
H        2.16681500      -1.31182400       1.86737000
H        1.82513000       0.42202300       1.81074300
H        1.73092400      -0.53581700       0.33276700
C        4.47063700       0.12335600       2.36196300
H        4.02050600       0.97258400       2.88688100
H        4.38441900      -0.75865800       3.00671100
H        5.53510900       0.33696700       2.21963200
C        2.87329100       1.89509000      -0.35024000
O        2.85381500       3.00472300       0.36326400
O        1.99064100       1.58769700      -1.14870900
H        2.04302300       3.52975400       0.17161400
C        4.06843300      -2.57649600      -0.09877000
H        4.69172000      -3.02258000      -0.88408000
H        4.25604900      -3.12973200       0.82446700
C        2.63312600      -2.84045900      -0.48006200
O        1.90139400      -3.57074700       0.18323500
O        2.24183800      -2.24137600      -1.58535400
H        1.24710700      -2.27888700      -1.66476800
S       -0.70753800       3.40594000      -0.23556300
O       -0.74569200       2.69488300       1.16381600
O       -0.47184700       2.24861500      -1.26338900
H        0.50860800       1.98171300      -1.26336400
H       -1.63669200       2.22985600       1.27634900
O        0.44854900       4.28464600      -0.20548900
O       -2.02234000       3.94554800      -0.53988600
68
2pa2sa
C        4.48605900       1.63454500       0.53372800
C        3.89109200       2.31175500      -0.75907700
C        4.43308700       1.14024300      -1.59678800
C        5.40833900       0.83435200      -0.44019300
H        4.41918700       3.24960600      -0.95258000
H        4.86949400       1.38341600      -2.56773800
H        3.68407100       0.35908000      -1.72927300
H        6.32072400       1.42534000      -0.58396700
C        3.45372200       0.78241400       1.27334500
H        3.94124400       0.16005700       2.02930500
H        2.73697700       1.42764700       1.79224500
H        2.88265900       0.12822300       0.60793100
C        5.18920500       2.57528200       1.50174700
H        4.46800500       3.24236500       1.98502000
H        5.70295200       2.00736200       2.28578300
H        5.93131600       3.19433400       0.98680800
C        2.43089100       2.62776300      -0.71625100
O        1.64515200       1.75410100      -1.29869500
O        2.02144100       3.63074900      -0.12387000
H        0.69308800       1.99667600      -1.18638300
C        5.88441600      -0.58987700      -0.12403500
H        6.55737800      -0.90921100      -0.92776000
H        6.45195800      -0.59114100       0.80992400
C        4.80810300      -1.63724200      -0.04219700
O        4.07955200      -1.90226400      -0.99686700
O        4.73442800      -2.24476700       1.12255000
H        3.97652700      -2.87652800       1.14667000
C       -4.72845200      -1.90499000       0.16654000
C       -3.70999800      -1.98793900      -1.03471000
C       -3.94796500      -0.49680800      -1.31215600
C       -5.26418200      -0.59932300      -0.50460400
H       -4.11120700      -2.64001400      -1.81520100
H       -4.02064000      -0.18530500      -2.35534300
H       -3.18183900       0.10542000      -0.81631200
H       -6.07125800      -0.88423300      -1.18697400
C       -4.03828600      -1.67738000       1.51057000
H       -4.77798000      -1.45700100       2.28659000
H       -3.50527300      -2.58342600       1.81851500
H       -3.32836100      -0.84752600       1.48650600
C       -5.71912900      -3.05688600       0.26105700
H       -5.21367500      -3.98050400       0.56166700
H       -6.49229000      -2.83655100       1.00611100
H       -6.21395400      -3.23706800      -0.69894200
C       -2.32917800      -2.44552000      -0.68950200
O       -2.21911900      -3.75764000      -0.63317000
O       -1.40822400      -1.67091000      -0.43666000
H       -1.31264200      -4.03049100      -0.35720600
C       -5.77543000       0.57824400       0.36062600
H       -6.66854500       1.01503100      -0.08931100
H       -6.02702900       0.22777100       1.36438600
C       -4.73713500       1.65606600       0.48555600
O       -3.84779700       1.63347400       1.33335900
O       -4.84445400       2.58782800      -0.43854900
H       -4.09721600       3.23090100      -0.39039700
S        1.39954300      -3.50382200       0.25827500
O        1.94652100      -3.34690600      -1.20098300
O        0.87645000      -2.08060500       0.64517300
S       -1.39662100       3.50241900      -0.00083600
O       -0.29765600       4.55764200       0.25059800
O       -1.54969900       2.84747700       1.41875000
H        2.80042400      -2.80568800      -1.17324500
H       -0.02170900      -1.90013100       0.19945700
H        0.64128900       4.16504500       0.09171600
H       -2.44373100       2.38238200       1.45838500
O        0.28969500      -4.43811700       0.18514700
O        2.49921600      -3.79722900       1.16263500
O       -2.63741700       4.18090400      -0.34426800
O       -0.91904400       2.49856800      -0.95106500
14
2sa
S       -2.06605300      -0.08611100       0.09596000
O       -1.91436400       1.50263100      -0.06680900
O       -1.51452300      -0.64241900      -1.26735000
O       -1.14235900      -0.41089700       1.16880600
O       -3.45377700      -0.43632100       0.17560700
H       -2.63037700       1.84025000      -0.62577900
H       -0.52434500      -0.56659000      -1.29894500
S        2.06605400      -0.08612300      -0.09594800
O        1.91424500       1.50264600       0.06648900
O        1.51456800      -0.64217200       1.26748100
O        1.14242000      -0.41121600      -1.16875400
O        3.45380400      -0.43625800      -0.17548000
H        2.63019900       1.84043500       0.62543300
H        0.52439700      -0.56630400       1.29916600
