40
2sa2ma1eda-30
S       -1.61114300       1.86156900       0.07722900
O       -0.86609700       1.97731300      -1.19868600
O       -2.31378900       3.04412800       0.52353400
O       -2.46553000       0.61150500       0.03393900
O       -0.52291800       1.55125400       1.21917600
H       -0.08777800       0.64637600       1.09288400
H       -2.02382200      -0.23137400      -1.43521200
S        0.81941900      -1.68586500      -0.03307200
O        0.76291500      -0.66615600       1.09717100
O        0.92164400      -0.86934700      -1.33304300
O        1.96582000      -2.57348100       0.11677300
O       -0.51048900      -2.40001600      -0.07214100
H       -1.46307600      -1.93932500       1.11567400
N       -2.15504300      -1.44938000       1.76694500
H       -3.01888700      -1.98612900       1.79158800
H       -2.35150700      -0.54795600       1.27076900
C       -1.59864100      -1.24431000       3.12401700
H       -1.46595100      -2.21272900       3.60662600
H       -0.62996800      -0.76088200       3.01241500
H       -2.27385200      -0.61806500       3.70706800
N       -1.53422000      -0.55798500      -2.29598500
H       -0.52317600      -0.67796100      -1.98730500
H       -1.57575700       0.22216700      -2.94871000
C       -2.07837900      -1.81881700      -2.83556800
H       -1.90900800      -2.59238300      -2.08656400
H       -3.14288800      -1.70751600      -3.04546000
H       -1.54537600      -2.08156300      -3.74957600
C        3.30895300       1.55510600      -0.93978200
N        1.84305700       1.58268700      -0.73470300
C        3.88925800       0.52450000       0.03566600
N        3.38315000       0.79845300       1.37837500
H        1.31733600       2.29254400      -1.24644300
H        1.66283200       1.73091300       0.26680700
H        3.50990900       1.28927600      -1.97985300
H        3.70059300       2.55355200      -0.73083100
H        4.97988900       0.59914000      -0.00124100
H        3.61761300      -0.48420700      -0.29751500
H        4.11749300       0.83235300       2.07148400
H        2.69339300       0.10230600       1.65399700
H        1.42136100       0.64328800      -0.98933400
40
2sa2ma1eda-32
S       -0.20031300       2.14198600      -0.23711800
O       -1.03372600       1.57821700       0.86299500
O       -0.62158800       3.42588700      -0.75172600
O        1.24982700       2.07707400       0.17468000
O       -0.32153300       1.11413100      -1.45425800
H        0.02929900       0.19144300      -1.19604500
H        1.36954100       1.07571700       1.59963500
S        1.13389300      -1.98105100       0.11566300
O        1.31003700      -3.39701900      -0.16458100
O        0.49437600      -1.25078800      -1.05310000
O        0.21903200      -1.75132500       1.32941800
O        2.43547600      -1.26451700       0.43772000
H        2.85055900      -0.26181500      -0.65532500
N        3.01126600       0.57578600      -1.31872300
H        3.95260500       0.93457300      -1.17777900
H        2.34195300       1.29029900      -0.96301200
C        2.76938400       0.21337100      -2.73437900
H        3.54018800      -0.48613600      -3.05822700
H        1.79712300      -0.27339200      -2.78826500
H        2.78448400       1.10990300      -3.35423700
N        1.32792400       0.42270800       2.41255300
H        2.27217200       0.08834000       2.59585800
H        0.80011100      -0.43103200       2.06231500
C        0.68570700       1.06231000       3.57653700
H        1.29178000       1.90117000       3.92005700
H       -0.28847300       1.42870400       3.25361200
H        0.57245100       0.33215200       4.37835800
C       -2.67945600      -1.27751600      -0.77431100
N       -2.19165300      -0.88773200       0.56926500
C       -3.92047000      -0.45866900      -1.09866700
N       -4.91115000      -0.64314300      -0.03513800
H       -1.33406400      -1.42303200       0.87593800
H       -2.96630100      -0.98455500       1.22929700
H       -1.87146600      -1.11550900      -1.48637000
H       -2.90125800      -2.34809400      -0.74759800
H       -4.28040600      -0.73715500      -2.09738900
H       -3.64298100       0.59959300      -1.13750600
H       -5.46564300      -1.47933400      -0.18453200
H       -5.55017900       0.14033800       0.02185200
H       -1.87967400       0.10929000       0.59267000
40
2sa2ma1eda-21
S       -1.46741300      -1.73799300      -0.70377400
O       -0.68908200      -2.24346000       0.44899300
O       -2.13326400      -2.72859900      -1.52046700
O       -2.36675200      -0.61111600      -0.23955400
O       -0.41272900      -1.01417400      -1.68455700
H       -0.02164300      -0.18070300      -1.26845700
H       -1.94390700      -0.24642400       1.40052400
S        0.80148300       1.66928500       0.58614500
O        0.70084200       1.15223000      -0.84801500
O        0.99987600       0.43036700       1.47182300
O        1.91200800       2.60220400       0.72792200
O       -0.54459800       2.25134500       0.95230600
H       -1.50364800       2.20474300      -0.35867100
N       -1.98245000       1.89113000      -1.25418500
H       -2.26978700       0.90704100      -1.04866700
H       -1.21970800       1.84401700      -1.93170200
C       -3.10004700       2.74929000      -1.68408100
H       -3.86080400       2.75294200      -0.90378300
H       -2.73872400       3.76550100      -1.84175200
H       -3.53120800       2.36068300      -2.60682700
N       -1.48481300      -0.06696400       2.32145000
H       -1.76332200       0.85787000       2.64481100
H       -0.45828500       0.02291600       2.07985900
C       -1.76050900      -1.15148000       3.28244000
H       -2.82755200      -1.18757100       3.50423100
H       -1.45143600      -2.08639500       2.81558000
H       -1.19622100      -0.97934400       4.19938000
C        3.91821900      -0.21792400      -0.40778700
N        3.32014500      -0.06448800      -1.73174900
C        3.46339900      -1.55141500       0.19791200
N        1.99055900      -1.61705600       0.06525100
H        4.00101000       0.15519400      -2.44507000
H        2.59796100       0.65285200      -1.72285100
H        5.01082000      -0.22333200      -0.46032300
H        3.62649700       0.60172500       0.25911800
H        3.72210100      -1.62642100       1.25627500
H        3.89224900      -2.39540000      -0.34796400
H        1.53760400      -0.84147900       0.63227900
H        1.54171000      -2.49001900       0.34311600
H        1.75032400      -1.44861400      -0.92089900
