27
2nta1ma1dma-2
N       -2.95364200      -0.07205800      -0.36132300
H       -3.63513500      -0.16995200      -1.11006000
C       -3.59378100       0.07400800       0.96475100
H       -4.15137800      -0.83147300       1.20408200
H       -2.79780200       0.22632800       1.69242800
H       -4.25678900       0.93933000       0.95861800
H       -2.33201100      -0.92378000      -0.36047500
N        2.39123300       0.04244600       0.17059200
C        3.34857900      -0.16297500      -0.93285400
C        3.00194600       0.27313000       1.49311300
H        1.77678200       0.85990000      -0.05656700
H        3.98356200      -1.02109700      -0.70609000
H        2.77874800      -0.35564900      -1.84173900
H        3.95887500       0.73310600      -1.05676800
H        3.58240400      -0.60419300       1.78372800
H        3.64843400       1.15128400       1.44751900
H        2.19870800       0.44318700       2.20993700
N       -0.20967800      -1.80983500      -0.29779400
O       -0.07057600      -1.03190800      -1.25887300
O       -1.35333400      -2.22172500       0.02160000
O        0.78716500      -2.17279500       0.37262200
H        1.76811800      -0.79922000       0.22625200
N       -0.32939600       1.76795700      -0.07988000
O       -0.41248400       1.00738500       0.90551500
O        0.78882900       2.18469700      -0.46153600
O       -1.36435800       2.10609500      -0.70518000
H       -2.35454300       0.77367700      -0.55526000
27
2nta1ma1dma-3
N        2.56499200      -0.20075200      -0.46001000
H        3.19487800      -0.47992900      -1.20848400
C        3.05207300      -0.64666100       0.86625200
H        4.04654600      -0.23816500       1.04644500
H        2.35527200      -0.26330700       1.60982900
H        3.06559300      -1.73570700       0.88976900
H        2.42569300       0.83711600      -0.48901700
N       -2.03411000       0.48303600       0.07738000
C       -2.34731200       0.18044600       1.49031300
C       -3.16227900       0.28352100      -0.85332000
H       -1.64954200       1.44814800      -0.00042700
H       -2.59886200      -0.87724600       1.57354100
H       -1.46011500       0.40692500       2.08040500
H       -3.18229000       0.80349500       1.81588600
H       -3.45465500      -0.76693700      -0.82375300
H       -3.99797500       0.92028900      -0.55827400
H       -2.83508900       0.54451500      -1.85981300
N        0.58748700       2.19315600      -0.00630300
O       -0.47309500       2.74289900      -0.38130000
O        1.65784700       2.39545000      -0.62959200
O        0.57605700       1.41225100       0.97169100
H       -1.24571600      -0.13529000      -0.23534300
N       -0.11471100      -2.24172700      -0.28433800
O        0.88568500      -2.94555900      -0.13772200
O       -1.24805600      -2.57845800       0.06783500
O        0.03170300      -1.07462300      -0.82735800
H        1.61462900      -0.61941100      -0.65577900
27
2nta1ma1dma-5
N        2.45484400      -0.84291900       0.42988100
H        1.83028100      -0.04059900       0.71423700
C        3.03506700      -0.59689500      -0.91177700
H        3.54785900       0.36370500      -0.90854500
H        3.71838900      -1.40721200      -1.16679900
H        2.20935600      -0.57364900      -1.62115700
H        3.17613500      -0.95222000       1.13878900
N       -1.97260000       0.70744400      -0.15302200
C       -2.49761300       0.43045200       1.20170700
C       -3.00984300       0.80637800      -1.19742200
H       -1.38694200       1.57312700      -0.12279400
H       -2.98395300      -0.54513600       1.20012100
H       -1.65394200       0.42780300       1.89081200
H       -3.20282500       1.21549600       1.48048800
H       -3.53483000      -0.14754800      -1.26481100
H       -3.70992400       1.60396800      -0.94355500
H       -2.52853500       1.02707600      -2.15017900
N        0.88871300       2.09018700       0.24826700
O       -0.09540300       2.74504200      -0.17094700
O        2.04036300       2.35781900      -0.09350800
O        0.66763300       1.11164900       1.03369300
H       -1.30196100      -0.05395000      -0.42132000
N       -0.39129600      -2.20860400      -0.08102700
O       -0.13947800      -1.21165400      -0.82968600
O       -1.55631900      -2.50209200       0.18715800
O        0.57746800      -2.85785600       0.38544300
H        1.84348700      -1.69647800       0.41373400
