1pa_4sa.log
 OpenBabel02281910203D
Gaussian opt/gaussian/g09/g09 # opt freq wb97xd/6-31++G(d,p)
 55 51  0  0  1  0  0  0  0  0999 V2000
    1.1984   -3.7241    0.2513 S   0  0  0  0  0  0  0  0  0  0  0  0
    0.9964   -2.6594    1.3988 O   0  0  0  0  0  0  0  0  0  0  0  0
    0.1734   -4.7257    0.4726 O   0  0  0  0  0  0  0  0  0  0  0  0
    0.9270   -2.9377   -1.0647 O   0  0  0  0  0  0  0  0  0  0  0  0
    2.5906   -4.1434    0.2031 O   0  0  0  0  0  0  0  0  0  0  0  0
    3.0219    2.4818   -0.0654 S   0  0  0  0  0  0  0  0  0  0  0  0
    2.9371    3.9980   -0.4215 O   0  0  0  0  0  0  0  0  0  0  0  0
    4.5056    2.4562    0.4325 O   0  0  0  0  0  0  0  0  0  0  0  0
    2.1116    2.1789    1.0309 O   0  0  0  0  0  0  0  0  0  0  0  0
    2.8906    1.6642   -1.2630 O   0  0  0  0  0  0  0  0  0  0  0  0
   -0.7584    3.8087    0.2203 S   0  0  0  0  0  0  0  0  0  0  0  0
   -0.4685    2.7431    1.3446 O   0  0  0  0  0  0  0  0  0  0  0  0
   -2.0347    4.4027    0.5695 O   0  0  0  0  0  0  0  0  0  0  0  0
    0.3960    4.6742    0.0497 O   0  0  0  0  0  0  0  0  0  0  0  0
   -0.8902    2.9756   -1.0916 O   0  0  0  0  0  0  0  0  0  0  0  0
   -1.7959    2.5087   -1.1191 H   0  0  0  0  0  0  0  0  0  0  0  0
   -4.3891   -1.3753    0.5034 C   0  0  0  0  0  0  0  0  0  0  0  0
   -3.8988   -2.2875   -0.6860 C   0  0  1  0  0  0  0  0  0  0  0  0
   -4.1502   -1.1212   -1.6551 C   0  0  0  0  0  0  0  0  0  0  0  0
   -5.1009   -0.5247   -0.5960 C   0  0  2  0  0  0  0  0  0  0  0  0
   -4.6059   -3.1111   -0.8224 H   0  0  0  0  0  0  0  0  0  0  0  0
   -4.5762   -1.3659   -2.6303 H   0  0  0  0  0  0  0  0  0  0  0  0
   -3.2487   -0.5241   -1.7943 H   0  0  0  0  0  0  0  0  0  0  0  0
   -6.0962   -0.9616   -0.7428 H   0  0  0  0  0  0  0  0  0  0  0  0
   -3.2350   -0.6555    1.2029 C   0  0  0  0  0  0  0  0  0  0  0  0
   -3.6169    0.1406    1.8510 H   0  0  0  0  0  0  0  0  0  0  0  0
   -2.6829   -1.3539    1.8407 H   0  0  0  0  0  0  0  0  0  0  0  0
   -2.5236   -0.2156    0.4991 H   0  0  0  0  0  0  0  0  0  0  0  0
   -5.2951   -2.0478    1.5246 C   0  0  0  0  0  0  0  0  0  0  0  0
   -4.7385   -2.7864    2.1105 H   0  0  0  0  0  0  0  0  0  0  0  0
   -5.7059   -1.3071    2.2202 H   0  0  0  0  0  0  0  0  0  0  0  0
   -6.1325   -2.5598    1.0393 H   0  0  0  0  0  0  0  0  0  0  0  0
   -2.5231   -2.8579   -0.5744 C   0  0  0  0  0  0  0  0  0  0  0  0
   -2.4619   -3.9199    0.2042 O   0  0  0  0  0  0  0  0  0  0  0  0
   -1.5453   -2.3570   -1.1282 O   0  0  0  0  0  0  0  0  0  0  0  0
   -1.5396   -4.2495    0.3022 H   0  0  0  0  0  0  0  0  0  0  0  0
   -5.3359    0.9782   -0.4368 C   0  0  0  0  0  0  0  0  0  0  0  0
   -5.8789    1.3354   -1.3214 H   0  0  0  0  0  0  0  0  0  0  0  0
   -5.9779    1.1666    0.4274 H   0  0  0  0  0  0  0  0  0  0  0  0
   -4.1303    1.8723   -0.3301 C   0  0  0  0  0  0  0  0  0  0  0  0
   -3.1684    1.8004   -1.0940 O   0  0  0  0  0  0  0  0  0  0  0  0
   -4.2331    2.7683    0.6283 O   0  0  0  0  0  0  0  0  0  0  0  0
   -3.4625    3.3825    0.6345 H   0  0  0  0  0  0  0  0  0  0  0  0
   -0.0681   -2.7050   -1.1264 H   0  0  0  0  0  0  0  0  0  0  0  0
    1.7055   -1.9703    1.3291 H   0  0  0  0  0  0  0  0  0  0  0  0
    0.4735    2.4359    1.2827 H   0  0  0  0  0  0  0  0  0  0  0  0
    2.0068    4.3227   -0.2753 H   0  0  0  0  0  0  0  0  0  0  0  0
    4.8680    1.5348    0.3660 H   0  0  0  0  0  0  0  0  0  0  0  0
    4.1159   -1.0937   -0.0403 S   0  0  0  0  0  0  0  0  0  0  0  0
    3.5194   -0.9552   -1.4921 O   0  0  0  0  0  0  0  0  0  0  0  0
    4.6924   -2.5342   -0.1075 O   0  0  0  0  0  0  0  0  0  0  0  0
    3.1710   -0.0351   -1.5899 H   0  0  0  0  0  0  0  0  0  0  0  0
    3.9556   -3.2045   -0.0273 H   0  0  0  0  0  0  0  0  0  0  0  0
    5.2197   -0.1677    0.1377 O   0  0  0  0  0  0  0  0  0  0  0  0
    3.0389   -1.0016    0.9380 O   0  0  0  0  0  0  0  0  0  0  0  0
  1  3  2  0  0  0  0
  1  2  1  0  0  0  0
  4  1  1  0  0  0  0
  5  1  2  0  0  0  0
  6  8  1  0  0  0  0
  6  9  2  0  0  0  0
  7 47  1  0  0  0  0
  7  6  1  0  0  0  0
 10  6  2  0  0  0  0
 11 13  2  0  0  0  0
 11 12  1  0  0  0  0
 14 11  2  0  0  0  0
 15 11  1  0  0  0  0
 16 15  1  0  0  0  0
 17 25  1  0  0  0  0
 17 29  1  0  0  0  0
 18 21  1  6  0  0  0
 18 33  1  0  0  0  0
 18 17  1  0  0  0  0
 19 18  1  0  0  0  0
 19 20  1  0  0  0  0
 20 24  1  6  0  0  0
 20 37  1  0  0  0  0
 20 17  1  0  0  0  0
 22 19  1  0  0  0  0
 23 19  1  0  0  0  0
 25 27  1  0  0  0  0
 25 26  1  0  0  0  0
 28 25  1  0  0  0  0
 29 30  1  0  0  0  0
 29 31  1  0  0  0  0
 32 29  1  0  0  0  0
 33 34  1  0  0  0  0
 34 36  1  0  0  0  0
 35 33  2  0  0  0  0
 37 40  1  0  0  0  0
 37 39  1  0  0  0  0
 38 37  1  0  0  0  0
 40 42  1  0  0  0  0
 41 40  2  0  0  0  0
 42 43  1  0  0  0  0
 44  4  1  0  0  0  0
 45  2  1  0  0  0  0
 46 12  1  0  0  0  0
 48  8  1  0  0  0  0
 49 54  2  0  0  0  0
 49 55  2  0  0  0  0
 50 49  1  0  0  0  0
 51 49  1  0  0  0  0
 51 53  1  0  0  0  0
 52 50  1  0  0  0  0
M  END
$$$$
