63
4sa1dma1tma1eda-40
S        3.35087900      -1.16820100      -1.32125200
O        2.34684100      -1.59840200      -0.29571600
O        4.65384100      -1.78038800      -1.15882900
O        3.49977500       0.43804200      -1.07021600
O        2.75434800      -1.18117100      -2.67281000
H        3.68676700       0.62279200      -0.13152400
H        1.10530600      -2.63620400      -0.55428200
S       -2.25597500       2.20018100       0.49032500
O       -1.94135700       2.01241300      -0.96356800
O       -1.34110200       3.19283900       1.09553100
O       -3.67469800       2.38847500       0.75292300
O       -1.94870700       0.77410500       1.17936200
H       -1.01476300       0.51646000       1.02544600
S        1.68669600       1.96709700       1.11992400
O        2.01443900       3.09413300       0.22458700
O        0.72980100       1.01957500       0.48192600
O        2.87257700       1.28521300       1.66593600
O        0.91798500       2.54026700       2.38890700
H        0.03327000       2.86506200       2.06505500
S       -0.95923700      -2.53390700       0.05986300
O       -1.51579200      -1.59121600      -0.97909200
O       -0.46509500      -1.77095100       1.22717500
O       -1.90490400      -3.59731000       0.37245300
O        0.30048700      -3.22838800      -0.61180600
C        1.20743000      -0.78046100       3.71832400
N        1.87892400      -1.22639200       2.47765400
C        2.71033900      -2.44014100       2.63301800
H        1.14059700      -1.40537300       1.76827200
H        1.95967300      -0.57411700       4.48075800
H        0.64519900       0.12831300       3.50359200
H        0.52871900      -1.56622300       4.05098200
H        3.47762200      -2.25520300       3.38630600
H        2.06858200      -3.26487700       2.94612500
H        3.16454100      -2.66345300       1.66852700
H        2.43816700      -0.44180000       2.10496700
N       -4.17048000      -1.21534300      -0.42204300
C       -4.55135500      -2.49745600      -1.07222700
C       -4.39010400      -1.26605400       1.04960300
C       -4.85730700      -0.05443700      -1.04472600
H       -4.03606500      -0.33220700       1.48350300
H       -5.45733700      -1.40333000       1.23661900
H       -3.81852100      -2.10481300       1.44866700
H       -4.34713000      -2.42028100      -2.14039700
H       -3.94319000      -3.29388600      -0.64182800
H       -5.61567100      -2.67433500      -0.90336600
H       -4.56128500       0.00349500      -2.09255300
H       -5.93608500      -0.20912200      -0.96969100
H       -4.56914500       0.85904900      -0.52219300
H       -3.13942200      -1.12392700      -0.57836600
C        0.05023100       1.04553900      -3.11859900
C        0.84128400       2.33551300      -2.94378100
N        0.30152300       3.17447700      -1.82833200
N        0.37758700       0.05374800      -2.07222900
H       -0.40511400      -0.59810500      -1.85556500
H        0.59700700       0.48739000      -1.15225700
H       -1.02303600       1.24210600      -3.09139900
H        0.30461200       0.60610600      -4.08498200
H        0.78714300       2.91068200      -3.86899600
H        1.89191600       2.11738100      -2.73207700
H        0.14260000       4.13628100      -2.11851200
H        0.96885300       3.19943500      -1.01129900
H        1.22159500      -0.49833500      -2.35433500
H       -0.61671800       2.78995900      -1.45608800
63
4sa1dma1tma1eda-11
S       -0.51209800       3.27208500      -0.67480800
O       -2.03191200       3.19467000      -1.15260600
O        0.24632500       3.57241800      -1.89663800
O       -0.20203700       1.85342600      -0.22513600
O       -0.38402500       4.20851900       0.43478200
H        1.32939200       1.28103400      -0.90542300
H       -2.59361400       2.75613400      -0.45783700
S        4.11203700      -1.06525000       0.05663100
O        5.69332600      -1.24591100       0.37419900
O        3.93810200       0.39428600       0.21904100
O        3.42155200      -1.87445200       1.09238100
O        3.86950500      -1.53424900      -1.30885300
H        2.11707000      -2.68728800       0.59648600
H        5.88969300      -2.19258600       0.38894600
S       -3.19843800       0.32267200       0.55766300
O       -2.66175300      -0.12248600      -0.74995200
O       -1.99333800       0.16526100       1.62193500
O       -3.52111100       1.75179100       0.62039600
O       -4.25520200      -0.60615800       1.01723900
H       -3.67404300      -2.12885000       0.31269800
S        0.14104300      -2.04700400       0.09933600
O        0.79204900      -0.72874000       0.02720500
O       -0.56274100      -2.40497900      -1.16798000
O        1.26610400      -3.13120200       0.29015300
O       -0.78894200      -2.17300000       1.25312300
H       -1.60015600      -0.74201400       1.53407600
N       -3.29703500      -2.89168600      -0.29434000
H       -2.34490300      -2.59085400      -0.57391200
C       -3.19631400      -4.15644500       0.46455100
H       -2.51720200      -3.99339700       1.30063800
H       -4.18726100      -4.44030100       0.82140800
H       -2.79442400      -4.93249600      -0.18840500
C       -4.14298700      -2.95719200      -1.50447200
H       -5.15206100      -3.25874600      -1.22094500
H       -4.16553800      -1.96155200      -1.94679500
H       -3.71696400      -3.67932900      -2.20258400
N        0.66887100       1.42038500       2.37247000
C        1.00678300       0.13848100       3.04206700
C        1.89756100       2.20258100       2.07210900
C       -0.31002700       2.22973600       3.14834000
H        1.60555800       3.10437600       1.53279500
H        2.37684400       2.46968300       3.01649300
H        2.57435600       1.58130300       1.48226300
H        0.09702800      -0.44590700       3.17134500
H        1.71372500      -0.40967300       2.41810400
H        1.45161600       0.36512700       4.01346200
H       -1.20759500       1.63267700       3.29903600
H        0.14625500       2.50539500       4.10158800
H       -0.55240700       3.11794900       2.56290900
H        0.21698400       1.22292700       1.45912200
C        0.41303500       0.58222500      -3.29962200
N       -0.66695900       0.19266700      -2.36050200
C        1.79390500       0.33256400      -2.71099000
N        2.10156600       1.27241500      -1.60243100
H       -1.59869300       0.40058700      -2.71844600
H       -0.61719700       0.72678000      -1.45879900
H        0.30703000      -0.01121700      -4.20977600
H        0.26989900       1.63963400      -3.53719500
H        2.54946200       0.46704900      -3.48634000
H        1.90201500      -0.67617100      -2.30982900
H        2.15905000       2.24101900      -1.92742100
H        2.95789300       0.98671000      -1.07358600
H       -0.64657200      -0.80975000      -2.08783600
63
4sa1dma1tma1eda-31
S       -2.25824200      -2.42883200      -1.10376400
O       -1.13790300      -3.25693600      -0.61218400
O       -3.46384400      -3.10714500      -1.53346200
O       -2.73162400      -1.51293900       0.15664500
O       -1.73983300      -1.43017000      -2.09478800
H       -1.80115800       0.04662800      -1.93141100
H       -2.09602600      -1.50691800       0.92445900
S        4.48273600      -0.80281400      -0.21720800
O        3.87033600      -1.97768900      -0.86395000
O        4.23258800       0.44976200      -0.96078200
O        4.19615100      -0.67856500       1.22394000
O        6.07886300      -1.04731200      -0.23854600
H        6.34817800      -1.23529100      -1.14858200
S       -1.07508200       0.30506800       2.67996900
O        0.37720800       0.64822500       2.72243100
O       -1.22027200      -1.11614100       2.24794500
O       -1.86152200       0.67019200       3.84007400
O       -1.68632100       1.18720500       1.47431700
H       -0.99314600       1.44167700       0.79352000
S       -0.43837300       1.75734800      -1.83200200
O       -1.87065200       1.05555400      -1.77506200
O       -0.03126400       1.86526400      -0.37261900
O        0.47892500       0.82946400      -2.52250900
O       -0.62768700       3.05959100      -2.43905500
C        2.83465600       2.73261800       1.41873000
N        2.58355100       2.44355900      -0.01071500
C        2.83084500       3.58012700      -0.92723200
H        3.18117600       1.64796400      -0.31672000
H        2.24349100       3.60038000       1.71378800
H        2.52163000       1.87257400       2.00995800
H        3.89761700       2.92720200       1.56572800
H        2.15781300       4.39840800      -0.66921500
H        3.87085000       3.89612500      -0.83605800
H        2.62691200       3.25102100      -1.94629100
H        1.58196800       2.15794200      -0.12668000
N       -4.18295400       0.90906000       0.08365800
C       -4.10216600       2.39084400       0.00256700
C       -4.88800100       0.32539000      -1.08909600
C       -4.77668600       0.45587900       1.37029800
H       -4.85075700      -0.76180900      -1.01733600
H       -5.92146400       0.67722400      -1.08348400
H       -4.37861800       0.65274700      -1.99504300
H       -3.53416900       2.74853600       0.86044000
H       -3.58820000       2.65792000      -0.92028400
H       -5.11582500       2.79611700       0.01336700
H       -4.17359800       0.84630500       2.19065800
H       -5.80062600       0.82938700       1.43249900
H       -4.76162300      -0.63317100       1.38735800
H       -3.21865900       0.54524500       0.07006800
C        1.00359300      -1.14854100      -0.04217600
N        1.09185100      -1.66093600      -1.42605200
C        1.29150200      -2.24639300       0.97496000
N        1.80605000      -1.60935300       2.21882100
H        0.82337900      -0.88154000      -2.06100600
H        0.41215900      -2.43010800      -1.53501600
H        1.71451500      -0.32693500       0.04283200
H        0.00739700      -0.73815800       0.09826600
H        2.06826100      -2.92075300       0.60838000
H        0.38198700      -2.79924100       1.20259700
H        2.77698900      -1.27997600       2.03865500
H        1.80326600      -2.26715800       2.99531700
H        1.22033200      -0.77354400       2.48963500
H        2.06217900      -1.95383600      -1.60976800
