32
1sa1eda1tma-09
S        0.11805400      -1.68563700      -0.04989700
O        0.97946100      -2.67139800      -0.68561900
O       -1.16546300      -2.12810100       0.49917900
O        0.91458600      -1.10983400       1.24479500
O       -0.06067400      -0.45799800      -0.91689300
H        1.79302500      -0.76907700       0.90259700
H       -1.27578300       0.30879300      -0.41917500
H        1.27004400       1.64444600      -1.21638400
H        1.98327100       3.14943500      -0.62572200
H        3.79414700       1.69029700      -1.11626700
H        3.68536500       1.77490200       0.64774200
H        2.67493900      -0.44743000      -0.99309300
H        3.94030900      -0.48717300       0.03638300
H        0.79817200       1.05924600       1.05575100
H        1.39271300       2.48402100       1.58789800
C        1.81299400       2.09525900      -0.37891800
C        3.17629800       1.40642800      -0.25075100
N        0.94565600       2.03206400       0.79546900
N        3.03892300      -0.05085000      -0.12776600
N       -2.19390700       0.80132400      -0.12866100
C       -2.26424800       0.78581800       1.35283200
H       -2.15617600      -0.24754100       1.68472400
H       -1.44281600       1.38943900       1.73856100
H       -3.22270200       1.20447600       1.67145500
C       -2.12741900       2.17879400      -0.66430400
H       -1.24701000       2.65980800      -0.23103300
H       -2.02582500       2.12650900      -1.74937500
H       -3.04070400       2.71932700      -0.40130000
C       -3.28085500      -0.00414700      -0.73227400
H       -3.14135000      -0.02356700      -1.81374600
H       -3.19968100      -1.01941700      -0.34167900
H       -4.24740700       0.44165100      -0.48347700
32
1sa1eda1tma-11
S       -0.04911300      -1.70910600       0.08898800
O       -0.21956100      -0.50302700       1.00056400
O        0.72499600      -2.75668900       0.73602300
O       -1.32960300      -2.06195800      -0.52826300
O        0.82382000      -1.13713700      -1.14383700
H        1.71691800      -0.86620400      -0.77392900
H        3.92633700       1.62896400       0.72327400
H        4.09144800       1.14125300      -0.96975600
H        2.49750300       2.98592500      -0.77455400
H        1.70367800       1.52959400      -1.37506700
H        0.79919500       1.16987200       0.80759800
H        1.52888400       2.53222000       1.37787500
H        3.84315100      -0.84892700       0.18669100
H        2.59870800      -0.32241500       1.09496800
C        3.40250900       1.14976800      -0.11846800
C        2.16992400       1.97912100      -0.49117900
N        3.03259900      -0.23956000       0.17813400
N        1.14765700       2.09376000       0.54460300
N       -2.18885300       0.91784800       0.03880000
C       -2.23372700       2.20782400       0.76311000
H       -2.45041500       2.01269800       1.81447800
H       -1.25444500       2.68342800       0.66840400
H       -3.01647100       2.83904300       0.33398800
C       -1.79628900       1.10106800      -1.38034800
H       -0.83797000       1.62137400      -1.40112200
H       -1.68884300       0.11577100      -1.83481700
H       -2.56190300       1.68913400      -1.89323700
C       -3.44699500       0.14598700       0.16784400
H       -3.29511600      -0.82461200      -0.30489600
H       -3.65831200      -0.00055100       1.22777200
H       -4.26262000       0.69915900      -0.30534600
H       -1.40348900       0.32352900       0.48144600
32
1sa1eda1tma-02
S        0.02309200       0.18694600      -0.63973600
O       -0.23916900      -0.94457400       0.27402200
O        1.02833500      -0.07157600      -1.67253100
O       -1.27524100       0.71228300      -1.18872700
O        0.55595900       1.39620000       0.25159500
H       -2.37907400       0.24070800      -0.36139300
H        1.58595700       1.38944100       0.25528700
H        4.93204600       0.38885100       0.95148000
H        3.61849800       0.70594300       2.11208900
H        3.84854700      -1.69311500       1.50789500
H        2.24367000      -1.05772100       1.11963900
H        3.69113300      -2.40408200      -0.62328400
H        2.71718800      -1.18490800      -1.11304700
H        3.60319700       2.27224400       0.26277900
H        3.37534400       1.04292200      -0.79188000
C        3.84198900       0.39557200       1.08548400
C        3.30645600      -1.01307100       0.84212900
N        3.19791000       1.34641100       0.16550800
N        3.53577700      -1.40684500      -0.54818200
N       -3.20773500      -0.10077800       0.27680700
C       -3.32426100      -1.56362300       0.07885400
H       -3.55991900      -1.75621800      -0.96856100
H       -2.35767400      -2.00906900       0.31654300
H       -4.11529000      -1.95904400       0.72227400
C       -2.82542100       0.23281900       1.66892800
H       -1.88551200      -0.27520900       1.88689000
H       -2.67196400       1.31032400       1.74048400
H       -3.61715600      -0.08367000       2.35371100
C       -4.41767400       0.62442200      -0.15875100
H       -4.24874900       1.69513100      -0.03896400
H       -4.60060400       0.40737600      -1.21180600
H       -5.27638900       0.31207400       0.44197400
