1b_1a_5w.log
 OpenBabel02281910093D
Gaussian kemi/andersx/programs/g09/g09 # opt freq 6-31++g(d,p) wb97xd
 25 18  0  0  0  0  0  0  0  0999 V2000
    2.0148    0.6384   -1.6453 N   0  0  0  0  0  0  0  0  0  0  0  0
    1.8694    2.4750    0.4961 O   0  0  0  0  0  0  0  0  0  0  0  0
    3.2500   -1.5402    0.0790 O   0  0  0  0  0  0  0  0  0  0  0  0
    0.7270   -2.7267   -0.6820 O   0  0  0  0  0  0  0  0  0  0  0  0
    1.7929    0.0497    1.9149 O   0  0  0  0  0  0  0  0  0  0  0  0
   -0.8124   -1.1029    1.0765 O   0  0  0  0  0  0  0  0  0  0  0  0
   -1.6229   -0.3004    0.1487 S   0  0  0  0  0  0  0  0  0  0  0  0
   -2.2067    0.9231    0.7180 O   0  0  0  0  0  0  0  0  0  0  0  0
   -2.8952   -1.3007   -0.1368 O   0  0  0  0  0  0  0  0  0  0  0  0
   -0.9927   -0.0886   -1.1721 O   0  0  0  0  0  0  0  0  0  0  0  0
   -0.7814    3.0005   -0.5610 O   0  0  0  0  0  0  0  0  0  0  0  0
   -3.5026   -0.8217   -0.7148 H   0  0  0  0  0  0  0  0  0  0  0  0
    1.0469    0.3241   -1.5837 H   0  0  0  0  0  0  0  0  0  0  0  0
    2.2667    0.7155   -2.6241 H   0  0  0  0  0  0  0  0  0  0  0  0
    2.5976   -0.0850   -1.2135 H   0  0  0  0  0  0  0  0  0  0  0  0
    2.0565    1.9721   -0.3284 H   0  0  0  0  0  0  0  0  0  0  0  0
    0.2228   -2.3903    0.0791 H   0  0  0  0  0  0  0  0  0  0  0  0
    0.4441   -2.1327   -1.3866 H   0  0  0  0  0  0  0  0  0  0  0  0
    0.8917   -0.2748    1.7717 H   0  0  0  0  0  0  0  0  0  0  0  0
    1.8063    0.9553    1.5423 H   0  0  0  0  0  0  0  0  0  0  0  0
    0.9879    2.8480    0.3317 H   0  0  0  0  0  0  0  0  0  0  0  0
   -1.3648    2.4874    0.0246 H   0  0  0  0  0  0  0  0  0  0  0  0
   -0.5940    2.3625   -1.2596 H   0  0  0  0  0  0  0  0  0  0  0  0
    2.5170   -2.1239   -0.1773 H   0  0  0  0  0  0  0  0  0  0  0  0
    2.8801   -1.0128    0.8146 H   0  0  0  0  0  0  0  0  0  0  0  0
  1 13  1  0  0  0  0
  1 15  1  0  0  0  0
  3 25  1  0  0  0  0
  4 17  1  0  0  0  0
  7  8  2  0  0  0  0
  7  6  1  0  0  0  0
  9  7  1  0  0  0  0
 10  7  2  0  0  0  0
 11 22  1  0  0  0  0
 12  9  1  0  0  0  0
 14  1  1  0  0  0  0
 16  2  1  0  0  0  0
 18  4  1  0  0  0  0
 19  5  1  0  0  0  0
 20  5  1  0  0  0  0
 21  2  1  0  0  0  0
 23 11  1  0  0  0  0
 24  3  1  0  0  0  0
M  RAD  1   6   2
M  END
$$$$
