1sa_1b_1a_1w.log
 OpenBabel02281910093D
Gaussian kemi/andersx/programs/g09/g09 # opt freq 6-31++g(d,p) wb97xd
 20 16  0  0  0  0  0  0  0  0999 V2000
   -0.2871    2.3850   -0.0779 N   0  0  0  0  0  0  0  0  0  0  0  0
   -2.4237    1.0715   -0.9237 O   0  0  0  0  0  0  0  0  0  0  0  0
   -2.5072   -0.0471    0.0659 S   0  0  0  0  0  0  0  0  0  0  0  0
   -1.5129    0.2053    1.1592 O   0  0  0  0  0  0  0  0  0  0  0  0
   -3.8506   -0.3609    0.5121 O   0  0  0  0  0  0  0  0  0  0  0  0
   -1.9943   -1.3638   -0.6904 O   0  0  0  0  0  0  0  0  0  0  0  0
    0.9065   -0.9697    1.2864 O   0  0  0  0  0  0  0  0  0  0  0  0
    1.6109   -0.5984   -0.1077 S   0  0  0  0  0  0  0  0  0  0  0  0
    2.8383   -1.3797   -0.1340 O   0  0  0  0  0  0  0  0  0  0  0  0
    1.8791    0.8828   -0.0468 O   0  0  0  0  0  0  0  0  0  0  0  0
    0.6208   -0.8910   -1.1668 O   0  0  0  0  0  0  0  0  0  0  0  0
    4.7950    0.9160    0.1217 O   0  0  0  0  0  0  0  0  0  0  0  0
   -1.0415   -1.2447   -0.9368 H   0  0  0  0  0  0  0  0  0  0  0  0
   -0.0165   -0.6012    1.2966 H   0  0  0  0  0  0  0  0  0  0  0  0
   -1.0877    1.9151   -0.6002 H   0  0  0  0  0  0  0  0  0  0  0  0
    0.6032    1.7971   -0.1511 H   0  0  0  0  0  0  0  0  0  0  0  0
   -0.5791    2.3536    0.8985 H   0  0  0  0  0  0  0  0  0  0  0  0
   -0.1327    3.3384   -0.3877 H   0  0  0  0  0  0  0  0  0  0  0  0
    4.6587   -0.0377    0.0572 H   0  0  0  0  0  0  0  0  0  0  0  0
    3.8790    1.2287    0.0969 H   0  0  0  0  0  0  0  0  0  0  0  0
  1 17  1  0  0  0  0
  2  3  2  0  0  0  0
  3  5  2  0  0  0  0
  3  4  1  0  0  0  0
  6  3  1  0  0  0  0
  7 14  1  0  0  0  0
  8 10  1  0  0  0  0
  8  7  1  0  0  0  0
  9  8  2  0  0  0  0
 11  8  2  0  0  0  0
 13  6  1  0  0  0  0
 15  1  1  0  0  0  0
 16  1  1  0  0  0  0
 18  1  1  0  0  0  0
 19 12  1  0  0  0  0
 20 12  1  0  0  0  0
M  RAD  2   4   2  10   2
M  END
$$$$
