1sa_1b_2a_5w.log
 OpenBabel02281910093D
Gaussian kemi/andersx/programs/g09/g09 # opt freq 6-31++g(d,p) wb97xd
 36 27  0  0  0  0  0  0  0  0999 V2000
   -0.4061    1.3610    1.6107 N   0  0  0  0  0  0  0  0  0  0  0  0
   -2.1282   -0.5117    2.8468 O   0  0  0  0  0  0  0  0  0  0  0  0
   -1.9306    1.2212   -0.7016 O   0  0  0  0  0  0  0  0  0  0  0  0
   -2.6507   -0.0834   -0.8250 S   0  0  0  0  0  0  0  0  0  0  0  0
   -3.3317   -0.2549   -2.0960 O   0  0  0  0  0  0  0  0  0  0  0  0
   -3.4333   -0.4135    0.3769 O   0  0  0  0  0  0  0  0  0  0  0  0
   -1.4445   -1.2016   -0.7616 O   0  0  0  0  0  0  0  0  0  0  0  0
    1.1089   -0.5174   -1.4110 O   0  0  0  0  0  0  0  0  0  0  0  0
    2.1838   -0.5098   -0.3844 S   0  0  0  0  0  0  0  0  0  0  0  0
    2.9937   -1.8766   -0.5445 O   0  0  0  0  0  0  0  0  0  0  0  0
    1.5996   -0.5402    0.9932 O   0  0  0  0  0  0  0  0  0  0  0  0
    3.1807    0.5385   -0.5740 O   0  0  0  0  0  0  0  0  0  0  0  0
    1.5557   -3.9779    0.3656 O   0  0  0  0  0  0  0  0  0  0  0  0
    2.0005    3.1856   -0.3690 O   0  0  0  0  0  0  0  0  0  0  0  0
    0.7244    3.9473    2.1241 N   0  0  0  0  0  0  0  0  0  0  0  0
    0.2482    2.1132   -2.2463 O   0  0  0  0  0  0  0  0  0  0  0  0
   -0.3663   -2.4028    1.4753 O   0  0  0  0  0  0  0  0  0  0  0  0
   -0.9590    1.4371    0.7315 H   0  0  0  0  0  0  0  0  0  0  0  0
   -0.9943    0.8338    2.2820 H   0  0  0  0  0  0  0  0  0  0  0  0
    0.6764    1.2428   -2.2421 H   0  0  0  0  0  0  0  0  0  0  0  0
   -0.5938   -0.8642   -1.1322 H   0  0  0  0  0  0  0  0  0  0  0  0
    0.4296    0.7901    1.4004 H   0  0  0  0  0  0  0  0  0  0  0  0
    1.3783    4.1064    2.8831 H   0  0  0  0  0  0  0  0  0  0  0  0
   -0.6280    1.9262   -1.8669 H   0  0  0  0  0  0  0  0  0  0  0  0
    2.4312   -2.6512   -0.2756 H   0  0  0  0  0  0  0  0  0  0  0  0
    0.7570   -3.5818    0.7842 H   0  0  0  0  0  0  0  0  0  0  0  0
    2.0406   -4.4021    1.0777 H   0  0  0  0  0  0  0  0  0  0  0  0
   -1.6101   -1.3188    2.7026 H   0  0  0  0  0  0  0  0  0  0  0  0
   -2.7296   -0.4826    2.0753 H   0  0  0  0  0  0  0  0  0  0  0  0
    1.2652    3.8140    1.2570 H   0  0  0  0  0  0  0  0  0  0  0  0
    0.1646    4.7871    2.0203 H   0  0  0  0  0  0  0  0  0  0  0  0
   -0.1117    2.3039    1.9495 H   0  0  0  0  0  0  0  0  0  0  0  0
    2.5748    2.4040   -0.3596 H   0  0  0  0  0  0  0  0  0  0  0  0
    1.3457    2.9734   -1.0658 H   0  0  0  0  0  0  0  0  0  0  0  0
    0.3322   -1.7169    1.4239 H   0  0  0  0  0  0  0  0  0  0  0  0
   -0.9505   -2.1626    0.7301 H   0  0  0  0  0  0  0  0  0  0  0  0
  1 32  1  0  0  0  0
  1 19  1  0  0  0  0
  4  7  1  0  0  0  0
  4  3  2  0  0  0  0
  4  6  1  0  0  0  0
  5  4  2  0  0  0  0
  8  9  2  0  0  0  0
  9 11  1  0  0  0  0
 10  9  1  0  0  0  0
 10 25  1  0  0  0  0
 12  9  2  0  0  0  0
 13 26  1  0  0  0  0
 13 27  1  0  0  0  0
 14 33  1  0  0  0  0
 15 23  1  0  0  0  0
 16 20  1  0  0  0  0
 16 24  1  0  0  0  0
 18  1  1  0  0  0  0
 21  7  1  0  0  0  0
 22  1  1  0  0  0  0
 28  2  1  0  0  0  0
 29  2  1  0  0  0  0
 30 15  1  0  0  0  0
 31 15  1  0  0  0  0
 34 14  1  0  0  0  0
 35 17  1  0  0  0  0
 36 17  1  0  0  0  0
M  RAD  2   6   2  11   2
M  END
$$$$
