2sa_1b_1a_5w.log
 OpenBabel02281910093D
Gaussian kemi/andersx/programs/g09/g09 # opt freq wb97xd/6-31++g(d,p) geom=conne
 39 29  0  0  0  0  0  0  0  0999 V2000
   -0.4436   -0.4119    2.1479 O   0  0  0  0  0  0  0  0  0  0  0  0
    1.5777   -1.8973    2.1985 O   0  0  0  0  0  0  0  0  0  0  0  0
   -0.7670    1.4024    0.4118 O   0  0  0  0  0  0  0  0  0  0  0  0
   -1.2733    2.7074   -0.1013 S   0  0  0  0  0  0  0  0  0  0  0  0
   -0.4724    3.8410    0.6750 O   0  0  0  0  0  0  0  0  0  0  0  0
   -2.6798    2.9567    0.2276 O   0  0  0  0  0  0  0  0  0  0  0  0
   -0.9413    2.8200   -1.5399 O   0  0  0  0  0  0  0  0  0  0  0  0
   -2.3834   -1.7236    1.1557 O   0  0  0  0  0  0  0  0  0  0  0  0
   -2.2900   -2.2022   -0.2598 S   0  0  0  0  0  0  0  0  0  0  0  0
   -2.6316   -3.5982   -0.4554 O   0  0  0  0  0  0  0  0  0  0  0  0
   -0.9388   -1.8575   -0.8235 O   0  0  0  0  0  0  0  0  0  0  0  0
   -3.3194   -1.3255   -1.0846 O   0  0  0  0  0  0  0  0  0  0  0  0
   -4.0854    0.6009    0.4666 O   0  0  0  0  0  0  0  0  0  0  0  0
    1.2607   -3.1558   -0.2666 O   0  0  0  0  0  0  0  0  0  0  0  0
    2.0741    3.1350    0.5759 O   0  0  0  0  0  0  0  0  0  0  0  0
    0.2910    0.3560   -1.9213 N   0  0  0  0  0  0  0  0  0  0  0  0
    2.1411    0.4572    0.1061 O   0  0  0  0  0  0  0  0  0  0  0  0
    3.4369   -0.2469   -0.1930 S   0  0  0  0  0  0  0  0  0  0  0  0
    4.4206    0.6047   -0.8382 O   0  0  0  0  0  0  0  0  0  0  0  0
    3.0212   -1.3261   -1.3353 O   0  0  0  0  0  0  0  0  0  0  0  0
    3.8811   -1.0214    0.9781 O   0  0  0  0  0  0  0  0  0  0  0  0
    0.5055    3.6381    0.6165 H   0  0  0  0  0  0  0  0  0  0  0  0
    2.4739   -2.0404   -0.9319 H   0  0  0  0  0  0  0  0  0  0  0  0
    1.0239    0.4434   -1.1809 H   0  0  0  0  0  0  0  0  0  0  0  0
   -0.3576   -0.3859   -1.5955 H   0  0  0  0  0  0  0  0  0  0  0  0
   -0.2049    1.2692   -1.9809 H   0  0  0  0  0  0  0  0  0  0  0  0
    1.4545   -2.5483    1.4831 H   0  0  0  0  0  0  0  0  0  0  0  0
    0.3751   -2.7684   -0.4997 H   0  0  0  0  0  0  0  0  0  0  0  0
   -3.6523    1.4748    0.3569 H   0  0  0  0  0  0  0  0  0  0  0  0
   -3.7141    0.2248    1.2736 H   0  0  0  0  0  0  0  0  0  0  0  0
   -3.6215   -0.5227   -0.5444 H   0  0  0  0  0  0  0  0  0  0  0  0
   -0.4239    0.3959    1.5511 H   0  0  0  0  0  0  0  0  0  0  0  0
    0.4439   -0.9545    2.1420 H   0  0  0  0  0  0  0  0  0  0  0  0
   -1.1989   -0.9871    1.7774 H   0  0  0  0  0  0  0  0  0  0  0  0
    2.1157    2.1556    0.5104 H   0  0  0  0  0  0  0  0  0  0  0  0
    2.6597    3.4523   -0.1164 H   0  0  0  0  0  0  0  0  0  0  0  0
    0.7223    0.0902   -2.8009 H   0  0  0  0  0  0  0  0  0  0  0  0
    2.4386   -1.4844    1.9715 H   0  0  0  0  0  0  0  0  0  0  0  0
    1.2360   -4.0827   -0.5161 H   0  0  0  0  0  0  0  0  0  0  0  0
  4  6  2  0  0  0  0
  4  3  1  0  0  0  0
  4  5  1  0  0  0  0
  7  4  2  0  0  0  0
  9  8  1  0  0  0  0
 10  9  2  0  0  0  0
 11  9  2  0  0  0  0
 12 31  1  0  0  0  0
 12  9  1  0  0  0  0
 13 30  1  0  0  0  0
 16 25  1  0  0  0  0
 16 24  1  0  0  0  0
 18 17  2  0  0  0  0
 18 21  1  0  0  0  0
 19 18  2  0  0  0  0
 20 23  1  0  0  0  0
 20 18  1  0  0  0  0
 22  5  1  0  0  0  0
 26 16  1  0  0  0  0
 27  2  1  0  0  0  0
 28 14  1  0  0  0  0
 29 13  1  0  0  0  0
 32  1  1  0  0  0  0
 34  1  1  0  0  0  0
 35 15  1  0  0  0  0
 36 15  1  0  0  0  0
 37 16  1  0  0  0  0
 38  2  1  0  0  0  0
 39 14  1  0  0  0  0
M  RAD  4   3   2   8   2  21   2  33   2
M  END
$$$$
