3sa_1b_2a_1w.log
 OpenBabel02281910093D
Gaussian kemi/andersx/programs/g09/g09 # opt freq 6-31++g(d,p) wb97xd
 38 30  0  0  0  0  0  0  0  0999 V2000
    1.9527   -0.2864    2.3702 N   0  0  0  0  0  0  0  0  0  0  0  0
    2.0829   -1.9398    0.3201 O   0  0  0  0  0  0  0  0  0  0  0  0
    3.1017   -2.0325   -0.7768 S   0  0  0  0  0  0  0  0  0  0  0  0
    2.4136   -2.0308   -2.0875 O   0  0  0  0  0  0  0  0  0  0  0  0
    3.9158   -0.6272   -0.6849 O   0  0  0  0  0  0  0  0  0  0  0  0
    4.1192   -3.0455   -0.5779 O   0  0  0  0  0  0  0  0  0  0  0  0
    0.0122   -0.8593   -1.3700 N   0  0  0  0  0  0  0  0  0  0  0  0
    2.1031    2.3794    1.3116 O   0  0  0  0  0  0  0  0  0  0  0  0
    1.8318    2.5265   -0.1257 S   0  0  0  0  0  0  0  0  0  0  0  0
    0.6537    3.3645   -0.4289 O   0  0  0  0  0  0  0  0  0  0  0  0
    3.1020    3.3262   -0.7450 O   0  0  0  0  0  0  0  0  0  0  0  0
    1.8579    1.2629   -0.8827 O   0  0  0  0  0  0  0  0  0  0  0  0
   -1.6828    2.2790   -0.1167 O   0  0  0  0  0  0  0  0  0  0  0  0
   -0.7512    0.5165    1.4140 O   0  0  0  0  0  0  0  0  0  0  0  0
   -1.3879   -0.7200    1.9689 S   0  0  0  0  0  0  0  0  0  0  0  0
   -2.8578   -0.3335    2.4199 O   0  0  0  0  0  0  0  0  0  0  0  0
   -0.6922   -1.1667    3.1741 O   0  0  0  0  0  0  0  0  0  0  0  0
   -1.5188   -1.7491    0.9068 O   0  0  0  0  0  0  0  0  0  0  0  0
   -4.0340    0.2945    0.1240 O   0  0  0  0  0  0  0  0  0  0  0  0
   -3.7256   -0.1502   -1.2551 S   0  0  0  0  0  0  0  0  0  0  0  0
   -4.8116   -0.1176   -2.2061 O   0  0  0  0  0  0  0  0  0  0  0  0
   -2.4768    0.5623   -1.7377 O   0  0  0  0  0  0  0  0  0  0  0  0
   -3.2863   -1.6926   -1.1491 O   0  0  0  0  0  0  0  0  0  0  0  0
    3.2371    4.1232   -0.2151 H   0  0  0  0  0  0  0  0  0  0  0  0
   -2.7174   -1.8048   -0.3497 H   0  0  0  0  0  0  0  0  0  0  0  0
   -3.3846   -0.1080    1.6016 H   0  0  0  0  0  0  0  0  0  0  0  0
   -1.4141    1.6164    0.6084 H   0  0  0  0  0  0  0  0  0  0  0  0
   -2.0434    1.6642   -0.8760 H   0  0  0  0  0  0  0  0  0  0  0  0
   -0.8360    2.7537   -0.3598 H   0  0  0  0  0  0  0  0  0  0  0  0
   -0.8078   -0.5833   -1.9199 H   0  0  0  0  0  0  0  0  0  0  0  0
   -0.3070   -1.3740   -0.5372 H   0  0  0  0  0  0  0  0  0  0  0  0
    0.7283   -1.4195   -1.8737 H   0  0  0  0  0  0  0  0  0  0  0  0
    0.4998   -0.0115   -1.0490 H   0  0  0  0  0  0  0  0  0  0  0  0
    1.0783   -0.5553    2.8506 H   0  0  0  0  0  0  0  0  0  0  0  0
    1.8838    0.6890    2.0335 H   0  0  0  0  0  0  0  0  0  0  0  0
    2.0824   -0.9381    1.5362 H   0  0  0  0  0  0  0  0  0  0  0  0
    2.7486   -0.3770    2.9942 H   0  0  0  0  0  0  0  0  0  0  0  0
    3.2871    0.1033   -0.8586 H   0  0  0  0  0  0  0  0  0  0  0  0
  1 34  1  0  0  0  0
  1 37  1  0  0  0  0
  3  5  1  0  0  0  0
  3  6  2  0  0  0  0
  3  2  1  0  0  0  0
  4  3  2  0  0  0  0
  7 33  1  0  0  0  0
  7 31  1  0  0  0  0
  9  8  1  0  0  0  0
 10  9  2  0  0  0  0
 11 24  1  0  0  0  0
 11  9  1  0  0  0  0
 12  9  2  0  0  0  0
 13 27  1  0  0  0  0
 14 15  2  0  0  0  0
 15 16  1  0  0  0  0
 15 17  1  0  0  0  0
 18 15  2  0  0  0  0
 20 23  1  0  0  0  0
 20 19  1  0  0  0  0
 21 20  2  0  0  0  0
 22 20  2  0  0  0  0
 23 25  1  0  0  0  0
 26 16  1  0  0  0  0
 29 13  1  0  0  0  0
 30  7  1  0  0  0  0
 32  7  1  0  0  0  0
 35  1  1  0  0  0  0
 36  1  1  0  0  0  0
 38  5  1  0  0  0  0
M  RAD  5   2   2   8   2  17   2  19   2  28   2
M  END
$$$$
