24
1sa1msa2am-01
S        2.28803900      -0.09102000      -0.25723300
O        2.14201900      -1.47350300      -0.73281200
O        3.58946400       0.53262600      -0.33482300
O        1.33456800       0.83496800      -1.18771300
O        1.64603700       0.03934900       1.11967800
H        0.44481700       0.40597300      -1.26478700
H        0.93402300       1.50129600       1.24820500
S       -2.17962600       0.00911500      -0.10422800
O       -1.11768600      -0.26637500      -1.10625500
O       -2.07231400       1.37130700       0.48929400
O       -2.25709900      -1.06514500       0.92204700
H       -0.81286100      -1.95455500       0.99971200
C       -3.72987200      -0.01379500      -0.97717100
H       -3.70089800       0.76541200      -1.73856000
H       -3.84617400      -0.99662300      -1.43368300
H       -4.52495600       0.17638300      -0.25624300
N        0.18855700      -2.25912800       1.06582900
H        0.30291500      -3.09661600       1.62778400
H        0.73652800      -1.45486300       1.44080000
H        0.60388500      -2.37894200       0.13013000
N        0.36326400       2.37095000       1.03700900
H        0.39839400       3.04973000       1.79148800
H       -0.62501700       2.04783600       0.84872900
H        0.75130700       2.75964200       0.17763900
24
1sa1msa2am-02
S       -2.49247600       0.00025400      -0.06641400
O       -2.35751200       1.23646600      -0.86577300
O       -2.35544300      -1.23462500      -0.86754600
O       -1.66476100       0.00016400       1.14846800
O       -4.00980700      -0.00163800       0.50686600
H       -4.61851400      -0.00381900      -0.24460300
S        2.47493000      -0.00020300      -0.09580200
O        2.27517000       1.24433900      -0.88799800
O        2.27707300      -1.24584300      -0.88666900
O        1.65000200      -0.00008600       1.14257900
C        4.18704200       0.00134900       0.39750700
H        4.37215900       0.89918700       0.98715800
H        4.37372000      -0.89599800       0.98741500
H        4.79644600       0.00175300      -0.50651300
N       -0.01361700       2.21705100       0.20976000
H       -0.88482900       2.04433200      -0.33718500
H        0.00405500       3.16094700       0.58366000
H       -0.01429100       1.52553800       0.97140800
H        0.84837100       2.00983200      -0.35294400
N       -0.01355800      -2.21707700       0.20986700
H        0.84890500      -2.01140800      -0.35248300
H       -0.88418800      -2.04453200      -0.33804600
H        0.00318200      -3.16039400       0.58527300
H       -0.01408400      -1.52440200       0.97047700
24
1sa1msa2am-04
S       -2.61200200      -0.03003800       0.15245400
O       -2.67570700      -1.39087100       0.69001100
O       -2.36349800       1.06804700       1.07884900
O       -1.67223900       0.02532200      -1.02800700
O       -4.08026900       0.29906600      -0.45353800
H       -4.43138000      -0.50855900      -0.85172500
S        2.59688700      -0.00791700      -0.03565500
O        2.50059400       1.35413200      -0.63422000
O        2.57442500      -1.10623500      -1.02291300
O        1.55210600      -0.19066600       1.02324300
C        4.17615900      -0.06750100       0.78534300
H        4.94979200       0.08793200       0.03310000
H        4.20255200       0.72157200       1.53655100
H        4.28236100      -1.04783100       1.24990500
N        0.01578500      -2.01985300      -0.25671400
H       -0.56239500      -2.75781600       0.13717000
H       -0.60149100      -1.35728000      -0.77315700
H        0.48331500      -1.44698200       0.48511500
H        0.77601700      -2.35092000      -0.85480500
N       -0.05936900       2.13107500      -0.27293100
H       -0.63333300       1.43078100      -0.79140500
H       -0.30765900       3.07351800      -0.55960600
H       -0.31828600       1.98980400       0.70674000
H        0.96720200       1.92915700      -0.41860600
