37
2sa1dma1tma-149
S       -0.70757800       2.01345400       0.10291500
O       -1.15940600       0.94499400       1.08320600
O       -1.60221800       3.15168100       0.07276200
O       -0.90927500       1.29930400      -1.34049500
O        0.73140000       2.26066800       0.25367300
H       -0.28750700       0.52886100      -1.38140200
H       -0.24004700      -0.40601300       1.26840700
S        0.31455500      -1.90241100      -0.19316700
O        0.24984400      -1.27842700       1.29095500
O        0.78543300      -0.75369100      -1.05153200
O        1.28791000      -2.97443900      -0.09611600
O       -1.06068300      -2.29172700      -0.56444400
H       -2.49471300       0.12352500       0.49309300
N       -3.10834300      -0.59302400       0.03107100
H       -2.41001000      -1.25038100      -0.38202500
C       -3.87622700      -1.31879200       1.06285700
H       -3.17232300      -1.76663000       1.76452600
H       -4.53010700      -0.61910000       1.58531700
H       -4.46875200      -2.10287400       0.58916700
C       -3.92355800       0.05338500      -1.01919100
H       -4.60463400       0.76668000      -0.55285000
H       -3.24911000       0.58188800      -1.69269900
H       -4.48874000      -0.70862100      -1.55820200
N        3.07469300       0.28233000      -0.00540100
C        3.89929100      -0.91021300      -0.33147400
C        3.54608100       1.50091000      -0.71014600
C        2.97417900       0.49593800       1.46327400
H        2.85217200       2.31126000      -0.48974800
H        4.55600200       1.73853300      -0.36833200
H        3.55161600       1.30210900      -1.78236100
H        3.43786400      -1.78961600       0.11995900
H        3.91293800      -1.03933300      -1.41372100
H        4.91213700      -0.75632200       0.04675100
H        2.56397400      -0.40808800       1.91334800
H        3.97197900       0.70673400       1.85489300
H        2.29545200       1.33093400       1.63521500
H        2.11310600       0.06034900      -0.36099300
37
2sa1dma1tma-41
S       -0.10692900      -1.92126700      -0.08683800
O        0.89731700      -2.89769800       0.31915100
O       -1.39084100      -2.45848600      -0.56985300
O       -0.52188600      -1.06725200       1.21448400
O        0.47042000      -0.90452300      -1.03414200
H        0.15053500       0.75419400      -1.40866600
H       -0.09590400      -0.15320100       1.20033900
S       -0.22391900       2.20031000       0.11126600
O        0.16172600       3.59046600       0.20268900
O       -1.67761000       1.91603900       0.19818800
O        0.22384000       1.73602800      -1.37590100
O        0.54093600       1.28639600       1.02620900
C       -3.76824100      -0.59102700       1.21040400
N       -3.11928400      -0.33899100      -0.09399200
C       -4.05028500      -0.02314600      -1.19563900
H       -2.45903800       0.47031900       0.02240200
H       -4.46318000      -1.42663500       1.11351500
H       -2.98668900      -0.83686100       1.92863100
H       -4.29879500       0.30889000       1.52433800
H       -4.73435000      -0.85975000      -1.34624700
H       -4.60796600       0.87990300      -0.94431100
H       -3.47064800       0.14924600      -2.10235800
H       -2.53863700      -1.17038900      -0.34220100
N        2.94011300      -0.18346800      -0.06167200
C        3.40749300       1.18900900      -0.38254900
C        3.03381500      -0.47732100       1.39376700
C        3.62237900      -1.22523400      -0.87154200
H        2.59649300      -1.46096600       1.57141100
H        4.08631800      -0.46365400       1.68535500
H        2.47222400       0.28656600       1.92986800
H        3.22686000       1.38406000      -1.43951400
H        2.83399100       1.89609400       0.21558900
H        4.47389000       1.25922400      -0.15719900
H        3.48466700      -0.99163700      -1.92726900
H        4.68490600      -1.23404600      -0.61993500
H        3.15744700      -2.18631600      -0.64750200
H        1.93345900      -0.25396400      -0.33068100
37
2sa1dma1tma-14
S       -1.21889300       1.85088100      -0.26996800
O       -1.73790400       1.41052700       1.04414600
O        0.10728200       2.47543700      -0.20061300
O       -1.38428600       0.82073100      -1.31362700
O       -2.23604700       3.01437400      -0.78666100
H       -2.08486200       3.80110900      -0.24620000
S        0.71065600      -1.81788000      -0.63701000
O       -0.50922100      -2.64885800      -0.73185300
O        0.61367000      -0.93805400       0.57932600
O        1.98700700      -2.50523200      -0.76089600
O        0.69346100      -0.79739000      -1.87918900
H       -0.07881300      -0.18512100      -1.77884100
C       -3.68058500      -1.18437700       0.11617200
N       -2.35564000      -1.27875500       0.76048700
C       -2.33874300      -1.96849900       2.06437400
H       -1.69056100      -1.77629700       0.12340500
H       -4.36371600      -0.64593000       0.77486700
H       -3.55924000      -0.63493000      -0.81746700
H       -4.05896000      -2.18853800      -0.08148000
H       -2.97086400      -1.42649700       2.76971200
H       -2.70425400      -2.98875400       1.93836800
H       -1.30806600      -1.98652700       2.41836600
H       -1.98607500      -0.31269200       0.88505900
N        2.72347000       0.67332600       0.63669000
C        2.57326400       1.75726400       1.63645800
C        3.75292800      -0.32173900       1.02654900
C        2.96892200       1.20813400      -0.72879800
H        3.71747800      -1.14936900       0.31609300
H        4.73455500       0.15789400       1.02789200
H        3.51588700      -0.69828500       2.02205400
H        1.74867500       2.39628900       1.31972400
H        2.34353300       1.30951300       2.60415300
H        3.50795500       2.32023800       1.69758300
H        2.13907100       1.86548900      -0.98753900
H        3.91774500       1.75055800      -0.72831500
H        3.00200900       0.37114200      -1.42622600
H        1.80907600       0.13373300       0.60659800
