76
4sa4eda-18
S       -1.79887900       2.37652600      -0.88862000
O       -1.53173700       1.22275100      -1.78106300
O       -1.41263300       2.07221400       0.52033500
O       -1.24127900       3.64533400      -1.36864000
O       -3.37303200       2.61994400      -0.89477600
H       -3.81748600       1.78124700      -0.62276300
S       -4.92111100      -0.92123400       0.27408500
O       -4.86293200      -2.04627300      -0.67114700
O       -4.80951400      -1.29388700       1.69213500
O       -3.99700400       0.17539500      -0.09334800
O       -6.37647300      -0.22801600       0.08423800
H       -7.05629200      -0.88660500       0.28294100
S        0.16795600      -2.60189300       0.79623800
O       -0.84870700      -1.50823600       0.39067400
O        1.14809600      -1.93992100       1.72054200
O       -0.50745000      -3.74843100       1.38827700
O        0.87619800      -2.94878200      -0.50714500
S        3.12670800       0.97034100      -1.03776600
O        3.16931000      -0.20951200      -1.99159900
O        3.99718200       0.68024100       0.13898500
O        3.48145100       2.24317400      -1.70252000
O        1.67415800       1.06939300      -0.54692500
C        5.68894800      -2.03981500       0.65907200
N        6.25925400      -3.12485400      -0.14521500
C        4.20249800      -2.29187500       0.86354600
N        3.57483500      -2.47326200      -0.46723600
H        6.50783400      -3.92503300       0.42641100
H        7.09340700      -2.82798600      -0.63643000
H        6.16722900      -1.91590700       1.63947800
H        5.79816200      -1.09505500       0.11874500
H        3.71440800      -1.44995800       1.34910900
H        4.01501000      -3.19959000       1.44368800
H        3.55211700      -1.57655100      -1.01334100
H        2.58148400      -2.79184800      -0.40033100
H        4.14638400      -3.14493300      -0.98771200
C        2.72931300       3.95771600       1.62046800
N        2.81756300       2.55763400       2.05634000
C        1.43980800       4.28500600       0.87288000
N        1.36971600       3.65897600      -0.46390700
H        3.33896900       2.50843900       2.92537100
H        3.34942500       1.98791700       1.38345100
H        2.74391600       4.60422300       2.50331300
H        3.58999800       4.24345200       1.00008100
H        1.35447100       5.36779900       0.74692900
H        0.56606200       3.93410400       1.42864800
H        2.17288700       3.87291200      -1.06291800
H        0.47584100       3.88113000      -0.93764400
H        1.40423200       2.58741700      -0.41471800
C       -1.54960800      -2.02329000      -2.92859200
C       -0.37366300      -1.14265500      -3.34255900
N        0.51537500      -0.83039000      -2.20566100
N       -2.31921300      -1.43551600      -1.80862900
H       -3.25170700      -1.85602200      -1.66522700
H       -2.43028000      -0.41121300      -1.89220800
H       -2.21128700      -2.15274600      -3.78720700
H       -1.19995200      -3.00610900      -2.60250500
H       -0.71991400      -0.19669800      -3.76353400
H        0.20293000      -1.67530800      -4.10143600
H        0.15540300      -0.04417700      -1.64473400
H        1.48514900      -0.54150300      -2.46187300
H       -1.78504400      -1.56220800      -0.90208400
H        0.64291400      -1.64834000      -1.55757900
C       -0.24187300       0.94113300       3.15391300
N        0.59168200       0.70676100       1.95842400
C       -1.36537500      -0.07364100       3.32768600
N       -2.23689500      -0.14388800       2.13348600
H        1.41688600       1.35385400       1.97338700
H        0.07383100       0.94063300       1.09993600
H        0.40294900       0.89492400       4.03435000
H       -0.64812900       1.95311400       3.07515200
H       -1.96347300       0.21373800       4.19479300
H       -0.96205100      -1.07561000       3.49572000
H       -2.37207900       0.76566600       1.66876800
H       -3.16331000      -0.56788600       2.30455200
H       -1.75099500      -0.75370100       1.40733300
H        0.91373600      -0.29221400       1.86320400
76
4sa4eda-34
S        3.43397100       0.23779200      -1.75458300
O        2.46565700       0.54466200      -2.83532000
O        3.26575800      -1.16868300      -1.27260600
O        4.80922700       0.62259700      -2.02544700
O        2.99880600       1.14566400      -0.48918700
H        2.24683700       0.69965800       0.00894000
S       -2.81100400       1.45796400      -1.41751100
O       -2.33402900       1.26765000      -2.80026400
O       -1.91821900       0.71865800      -0.45206200
O       -3.02986300       2.84593800      -1.01130700
O       -4.23630400       0.76787700      -1.27589300
H       -4.13695300      -0.21630000      -1.38589200
S       -3.68028200      -2.60908600      -0.19244700
O       -4.30008100      -1.90113700       0.94032800
O       -3.77188600      -1.85517000      -1.46398400
O       -2.33744000      -3.14295800       0.07632100
O       -4.54261900      -3.96203700      -0.41223300
H       -5.46635000      -3.71256000      -0.55295700
S        1.00245600      -0.32544800       2.27258800
O       -0.01755400      -1.40160600       2.45823900
O        0.57269500       0.94764200       2.91997700
O        2.34156600      -0.75997400       2.74421000
O        1.06536800      -0.06626000       0.74508400
C       -3.68142000       1.89717400       2.86522700
N       -3.09397600       2.88962100       1.95261800
C       -2.70775000       0.78460900       3.23649700
N       -2.44318600      -0.14701500       2.11196800
H       -3.40665500       3.82021000       2.20596400
H       -3.39319100       2.75526400       0.98558900
H       -3.95549000       2.39397800       3.80048900
H       -4.60256700       1.46201600       2.45503000
H       -3.10920200       0.18996800       4.06065000
H       -1.74289200       1.19559800       3.54182500
H       -3.23494900      -0.77719400       1.89700800
H       -1.59466800      -0.73126600       2.30763700
H       -2.24938700       0.34344300       1.21652600
C        0.25291300       3.98792400      -0.97017100
N        0.37070400       2.76570200      -1.75802400
C        0.59902400       3.68167800       0.48304100
N       -0.30156200       2.62444100       0.99413400
H        1.33572100       2.55392500      -1.99886100
H       -0.16482700       2.84032800      -2.61604300
H        0.89899400       4.80693400      -1.31477000
H       -0.78556700       4.32912000      -1.03136800
H        0.50728000       4.56581100       1.11745100
H        1.62174900       3.30226300       0.55523400
H       -1.23319300       2.95234900       1.31732300
H        0.11430800       2.07498700       1.78271100
H       -0.48286400       1.94846900       0.23580200
C        6.70239000      -0.49567300       0.50185500
N        7.19099100      -1.79319300       0.97727600
C        5.45549100      -0.11272500       1.28906300
N        4.48076000      -1.22934000       1.20909600
H        7.78624200      -1.69425200       1.79269100
H        7.72803200      -2.27209300       0.26481000
H        7.43610500       0.31566400       0.58595100
H        6.43225500      -0.57625100      -0.55512500
H        4.98177800       0.78032100       0.88013900
H        5.67987800       0.05034600       2.34692700
H        4.09141800      -1.30715900       0.24218200
H        3.65897600      -1.08293100       1.85021600
H        4.98628900      -2.09255700       1.42842300
C        0.44403000      -2.58896700      -1.73757500
N        0.26075000      -2.42550400      -0.27288800
C       -0.45512000      -1.63599200      -2.50611200
N       -0.08389300      -0.21811800      -2.29638300
H        0.79812800      -3.11264900       0.25314200
H       -0.73820000      -2.56233000      -0.01054100
H        1.49927900      -2.41021500      -1.95982000
H        0.17087100      -3.61238900      -2.00120700
H       -1.50560100      -1.75269000      -2.22189900
H       -0.36122000      -1.84811400      -3.57257100
H       -0.21956100       0.07609800      -1.31921000
H       -0.76949400       0.39134000      -2.78232100
H        0.89693300       0.01878500      -2.57980500
H        0.58939700      -1.48270900       0.07860100
76
4sa4eda-35
S        3.36369300      -0.17996600      -1.81271800
O        2.37990200      -0.07774100      -2.91982000
O        3.14433700      -1.42950300      -1.02230700
O        4.74502900       0.06601700      -2.19155500
O        3.00264800       1.01336000      -0.78288200
H        2.27320700       0.71982800      -0.15570900
S       -3.57132100      -2.84800600       0.14209900
O       -4.28595500      -2.05373400      -0.87832200
O       -2.74391900      -3.91698700      -0.41835800
O       -2.84976600      -2.01436100       1.13199800
O       -4.72036500      -3.53630700       1.05882100
H       -5.27354700      -4.08621400       0.48687000
S       -2.83486300       1.11401800      -1.52626500
O       -2.58060400       0.50932800      -2.84050800
O       -1.81324900       0.63045600      -0.51831400
O       -2.96731700       2.57117700      -1.50104300
O       -4.22930600       0.58618500      -0.96896500
H       -4.25518100      -0.41221600      -0.96489100
S        1.10055400       0.35671300       2.34972800
O        1.12011900       0.21402300       0.80959800
O        0.65361100       1.74594000       2.66029300
O        0.09702600      -0.64568500       2.83412700
O        2.45562300       0.07585200       2.88297300
C       -3.59829000       2.61020700       2.41051200
N       -2.99680900       3.39022300       1.31966500
C       -2.61914800       1.63051700       3.04779400
N       -2.31950900       0.46018000       2.18528800
H       -3.27054500       4.36316100       1.39510700
H       -3.31451900       3.07794800       0.40103200
H       -3.91797600       3.28962700       3.20619700
H       -4.49578700       2.07427400       2.07392700
H       -3.02223700       1.24389600       3.98710900
H       -1.66289300       2.11679300       3.25347300
H       -3.06349000      -0.24213900       2.13575800
H       -1.45294200      -0.03441500       2.52064100
H       -2.13471400       0.70615600       1.19061500
C        0.27830300       3.68087600      -1.90926400
N        0.33212900       2.30764900      -2.40118700
C        0.68833100       3.71053800      -0.44190200
N       -0.22102600       2.85421500       0.35182600
H        1.28528600       2.00730400      -2.59373600
H       -0.20256000       2.22263200      -3.25872900
H        0.92506600       4.37776800      -2.46021500
H       -0.75420300       4.03197800      -2.00511900
H        0.66460900       4.72420100      -0.03637400
H        1.69826600       3.30886700      -0.32415600
H       -1.13302200       3.28266700       0.59585900
H        0.20343300       2.52868500       1.25212900
H       -0.44428300       2.00483900      -0.19053900
C        6.63775700      -0.65475200       0.47142100
N        7.05293300      -1.83943700       1.22803800
C        5.46287800       0.00468000       1.18261000
N        4.40724700      -1.01577800       1.40374100
H        7.69349700      -1.60089700       1.97754400
H        7.51720400      -2.51588100       0.63456600
H        7.43185200       0.09004300       0.33637800
H        6.31111700      -0.95973900      -0.52689500
H        5.03514900       0.81216300       0.58737000
H        5.75096000       0.39433800       2.16294500
H        3.96291500      -1.27994800       0.49515800
H        3.64351900      -0.65224500       2.02922300
H        4.86287500      -1.84414200       1.79810400
C        0.18075700      -2.78908300      -0.90846900
C       -0.55869000      -2.12491100      -2.05525200
N       -0.15969600      -0.71377600      -2.26348500
N       -0.11756900      -2.13817400       0.39455000
H        0.26836300      -2.66771500       1.17605800
H       -1.13560900      -2.05627300       0.59459500
H       -0.15569700      -3.82480900      -0.85191000
H        1.26282700      -2.73615800      -1.05621600
H       -1.63872600      -2.14737800      -1.89786700
H       -0.34038100      -2.67489400      -2.97214000
H       -0.36116300      -0.13680200      -1.43014300
H       -0.79797600      -0.28433900      -2.94723800
H        0.32943700      -1.18446100       0.48329000
H        0.84107500      -0.56892900      -2.54720400
