32
2msa2ma-01
S       -2.59756700       0.00009300      -0.18996200
O       -1.98595600      -0.00208800       1.15268900
O       -2.28783300      -1.23792200      -0.96333400
O       -2.29063900       1.24185000      -0.95851100
H       -0.86168400       1.96432200      -0.55561800
C       -4.36959800      -0.00199400       0.01488100
H       -4.64652200      -0.90011500       0.56726700
H       -4.64815300       0.89337700       0.57091400
H       -4.82839400      -0.00036900      -0.97377200
S        2.59760000      -0.00012200      -0.19001400
O        1.98565200       0.00192200       1.15249300
O        2.28781500       1.23789700      -0.96336100
O        2.29110500      -1.24190200      -0.95867600
H        0.86129900      -1.96417500      -0.55558700
C        4.36958600       0.00236300       0.01526500
H        4.64618500       0.90052000       0.56775800
H        4.64821400      -0.89297200       0.57131600
H        4.82861700       0.00089300      -0.97328000
N       -0.00026600      -2.47536700      -0.22773200
H       -0.86049800      -1.96141700      -0.55495600
C        0.00084400      -2.57977200       1.25145200
H       -0.89897500      -3.10256800       1.57521300
H        0.89646700      -3.11106700       1.57307700
H        0.00616200      -1.56946000       1.65575600
H       -0.00223400      -3.39236000      -0.66862800
N        0.00020800       2.47520400      -0.22776300
H        0.86017400       1.96073300      -0.55481600
C       -0.00094300       2.57984000       1.25139300
H        0.89959800       3.10132200       1.57525400
H       -0.89581500       3.11254200       1.57280700
H       -0.00790800       1.56959900       1.65585200
H        0.00285500       3.39212100      -0.66881000
32
2msa2ma-04
S       -2.65082700      -0.00036900      -0.15620000
O       -2.59428100      -1.25083700      -0.93098900
O       -2.59410100       1.24950500      -0.93197000
O       -1.58240300       0.00000700       0.92678600
C       -4.20110100       0.00009400       0.72839600
H       -5.00221700      -0.00046500      -0.01126100
H       -4.24801800      -0.89692700       1.34590600
H       -4.24816900       0.89793600       1.34469900
S        2.74827900       0.00023400       0.06309000
O        2.66439000      -1.24324300       0.87196600
O        2.66259900       1.24557500       0.86911500
O        1.75334600      -0.00161700      -1.05163600
C        4.36639500       0.00069800      -0.68390100
H        5.10624100       0.00316900       0.11663500
H        4.46139700      -0.89791900      -1.29341700
H        4.45922000       0.89704700      -1.29707900
N        0.12557800       2.02585100       0.11114200
H        0.30733900       1.62825900      -0.81551400
H       -0.52800000       1.34585900       0.56059800
C       -0.45314100       3.38253500       0.04579000
H       -0.59308900       3.75564400       1.06024400
H        0.22669600       4.04067700      -0.49525500
H       -1.41375200       3.31465300      -0.46366000
H        1.04690400       1.96721200       0.59016200
N        0.12680500      -2.02584800       0.11409400
H        1.04670000      -1.96801000       0.59555300
H       -0.52822500      -1.34691300       0.56302700
C       -0.45108400      -3.38264000       0.04391600
H       -1.41086600      -3.31377500      -0.46695200
H        0.23000200      -4.03883600      -0.49792300
H       -0.59255300      -3.75882300       1.05702300
H        0.31167100      -1.62590400      -0.81106900
32
2msa2ma-05
S        2.77380000       0.00421900      -0.00953500
O        3.03324100       1.31310100      -0.62369700
O        2.59808400      -1.12228500      -0.96315500
O        1.61230100       0.06178100       0.95300000
H        0.17623200      -1.50456600       0.59656200
C        4.19753200      -0.40902500       0.98356500
H        5.05935000      -0.46760400       0.31823900
H        4.33778000       0.37726800       1.72546500
H        4.01890100      -1.36956100       1.46678800
S       -2.68448100       0.08511000       0.19107800
O       -2.45233500      -1.05180300       1.09944800
O       -1.87916100      -0.03831000      -1.06811700
O       -2.49273400       1.42186600       0.82138900
H       -0.93448300       2.01020800       0.68568000
C       -4.39678600       0.03745500      -0.30399900
H       -4.58498000      -0.92339200      -0.78329200
H       -5.00734000       0.14679500       0.59245200
H       -4.57805300       0.85764800      -0.99851800
N        0.05387400       2.25511200       0.42242100
H        0.38183800       3.03100200       0.99239400
C        0.12540500       2.57031000      -1.02774900
H        1.17250100       2.64419100      -1.31916800
H       -0.36207100       1.75191700      -1.55797700
H       -0.41152600       3.49985100      -1.21792100
H        0.65672500       1.42414000       0.64671600
N        0.02178600      -1.88847900      -0.34137200
H       -0.65684700      -1.22628500      -0.78177700
C       -0.52119600      -3.25973900      -0.30246600
H       -0.67377700      -3.61043800      -1.32305000
H        0.18321800      -3.91610800       0.20858800
H       -1.47069100      -3.23062300       0.23166500
H        0.94960100      -1.79892900      -0.80191700
