25
2sa1am1ma-105
S       -2.25279900       0.05409300      -0.15610300
O       -1.53604800      -0.27866400       1.12441000
O       -3.60725200      -0.44565600      -0.24002500
O       -2.03953800       1.48650600      -0.47004300
O       -1.44162200      -0.79134100      -1.27916700
H       -0.52250000      -0.43667300      -1.34607000
H       -0.74279400       1.99881100       0.37748500
S        2.00725500      -0.46877100      -0.09362900
O        1.81635600      -1.92628400       0.06798600
O        1.13002900       0.10959100      -1.13596500
O        2.00343900       0.30189000       1.15556500
O        3.52494300      -0.29130100      -0.62589300
H        3.64877500      -0.86359000      -1.39563600
N       -0.66288900      -2.73308500       0.84925100
H       -1.17351300      -3.07694300       0.03739500
H       -0.72062300      -3.39482500       1.61741900
H        0.33107500      -2.54811800       0.57525300
H       -1.08188300      -1.77682700       1.10391700
N        0.12727300       2.33689900       0.87415100
H        0.71056600       1.50622200       1.10303700
H       -0.15837100       2.77875000       1.74498400
C        0.89300000       3.25311200      -0.00158000
H        1.15792400       2.69697000      -0.90021000
H        0.27093600       4.10905700      -0.26200400
H        1.79796600       3.57872000       0.51085700
25
2sa1am1ma-62
S        2.06365000       0.51130400      -0.07286200
O        1.50741800       1.87951500      -0.07252700
O        1.39988400      -0.32475300      -1.14333000
O        3.50284100       0.38917800      -0.05752800
O        1.57602400      -0.19748800       1.30330900
H        0.58326100      -0.17876300       1.34481800
S       -1.79007300      -0.91537200       0.08991500
O       -1.10035900      -0.11352600       1.16958100
O       -1.28723700      -2.30805200       0.09931800
O       -3.22427500      -0.74254000       0.07370000
O       -1.27621500      -0.24002700      -1.28334800
H       -0.28232500      -0.24976600      -1.31465500
N        1.31750900      -2.80758300      -0.13243900
H        1.54759500      -1.95380800      -0.70288900
H        1.56711300      -3.67031600      -0.60704300
H        1.81054700      -2.72213800       0.75540500
H        0.27250300      -2.73463600       0.02990100
C       -1.95274500       2.88137800      -0.56253100
N       -1.04018800       2.51142900       0.54757500
H       -0.04673000       2.39607200       0.22787200
H       -1.06051100       3.18847000       1.30697700
H       -1.89768100       2.09384300      -1.31312000
H       -2.97196400       2.94767700      -0.18328700
H       -1.63918900       3.83532800      -0.98545800
H       -1.26929200       1.55948100       0.92445700
25
2sa1am1ma-144
S        1.79461000      -1.00605400      -0.04702700
O        1.25394600      -0.39604800       1.35633300
O        3.23212000      -0.88863900       0.03830600
O        1.24308400      -2.37486400      -0.15817000
O        1.17635300      -0.10230800      -1.08397500
H        1.41837300       1.54167200      -0.48407700
H       -0.32982300      -2.75995100      -0.23644500
S       -2.02688900       0.49795600       0.09201600
O       -1.44262000       1.84860400       0.22669300
O       -3.46622000       0.41145900       0.00831200
O       -1.49762600      -0.10532700      -1.31819700
O       -1.42507400      -0.43777400       1.11539800
H        0.26049900      -0.41944800       1.36676900
H       -0.50379100      -0.08994000      -1.32799100
N       -1.38370700      -2.81023700      -0.14342300
H       -1.69445500      -3.71695500       0.19262200
H       -1.81620400      -2.57876800      -1.03741900
H       -1.61565400      -2.03008600       0.52071600
N        1.20888500       2.30852800       0.19127800
H        1.65964800       2.03498600       1.06515700
H        0.16930400       2.22170300       0.32402000
C        1.61362200       3.64728700      -0.28428900
H        2.68856200       3.66178900      -0.46199800
H        1.08294900       3.85863200      -1.21182000
H        1.34738200       4.39335600       0.46379400
