38
2sa1fa1eda1ma-1
S       -0.49294300      -1.50968600      -0.29727500
O       -0.13509400      -0.86299800       0.99573300
O        0.71632800      -1.96959900      -1.00477300
O       -1.56953100      -2.50061600      -0.18132800
O       -1.17231000      -0.35523800      -1.18727900
H       -0.50066000       0.34574900      -1.39611900
S        0.93552400       2.52059800      -0.45367300
O       -0.27160500       2.93807200       0.28092700
O        2.07623500       2.19383700       0.42608000
O        0.71003400       1.50017200      -1.49130000
O        1.38351200       3.81212000      -1.32580300
H        1.44177600       4.57199700      -0.73083300
H       -5.71162500      -0.99515900      -0.96624500
H       -3.11879000      -2.16009700      -0.64528700
C       -4.69294600      -1.03609000      -0.55942500
O       -4.05726500      -2.09244500      -0.98267300
O       -4.27181900      -0.17421200       0.19570900
H        3.77566000      -0.53947400       1.75906800
H        2.10565000      -1.16589700       1.69506800
H        3.77639000      -3.04865100       1.82382200
H        2.83572100      -3.07767100       0.32647800
H        5.63151400      -2.25419800       0.57838000
H        4.93764100      -3.23771600      -0.53032800
H        2.61359400       0.57630800       0.02996000
H        3.68564700      -0.53893500      -0.68385900
C        3.06394200      -1.12963800       1.17526900
C        3.60233400      -2.52340000       0.87626900
N        2.84250500      -0.42906400      -0.11300500
N        4.79201700      -2.40736800       0.03043500
H        2.04884300      -0.88876800      -0.60982400
N       -2.04546300       1.06939900       1.33511900
H       -1.56786400       1.83160600       0.82291500
H       -2.81304900       0.67051700       0.76737600
C       -2.52994100       1.52045100       2.65364800
H       -2.97277000       0.67409900       3.17811200
H       -1.69049500       1.91668400       3.22459800
H       -3.28129700       2.29776200       2.51674800
H       -1.32881200       0.31581100       1.41038400
38
2sa1fa1eda1ma-2
S        0.84231600      -0.64477500       1.64027200
O        0.78894100      -0.69811000       0.11755800
O       -0.18218000      -1.54641700       2.18603700
O        2.19257800      -0.75436200       2.15325100
O        0.39414900       0.86085000       1.96595000
H       -0.54946300       1.00561100       1.68459700
S       -2.16300300       1.65131400      -0.42983000
O       -2.22092600       0.52348500      -1.36688200
O       -2.05490300       1.22788700       0.98569400
O       -1.19019200       2.70300100      -0.78757400
O       -3.62536400       2.32944600      -0.57870700
H       -3.65446900       3.11896300      -0.02098300
H        1.48578100      -4.26650900      -2.39203500
H        1.38614700      -1.93535300      -0.73376800
C        0.98725900      -3.52839900      -1.75133900
O        1.82177200      -2.61092600      -1.33539900
O       -0.20235300      -3.60063800      -1.49273200
H        2.50866500       3.40376200      -0.44524500
H        1.90895700       2.41476900       0.91444600
H        4.38550900       2.07932300       0.52887300
H        3.45145300       0.59764700       0.35668400
H        4.68337600       2.12754900      -1.80190200
H        4.56405000       0.50704900      -1.60999400
H        0.47555900       2.23334900      -1.06241500
H        1.83358600       1.60577800      -1.90191800
C        2.35079600       2.38461000      -0.08196500
C        3.64298800       1.57357100      -0.09979000
N        1.37973000       1.72598000      -0.99194600
N        4.07107600       1.38301700      -1.48814100
H        1.14888300       0.77162200      -0.62397200
N       -1.91094000      -1.91757100      -0.00030300
H       -1.97565500      -1.00897100      -0.49718400
H       -1.30023800      -2.53635600      -0.56262400
C       -3.25252400      -2.49397400       0.21488800
H       -3.15553200      -3.44974100       0.72935700
H       -3.84006900      -1.80465900       0.82075400
H       -3.73886000      -2.64059500      -0.74912700
H       -1.40904800      -1.75641900       0.89379500
38
2sa1fa1eda1ma-4
S        0.58785900      -1.64337700      -0.17927600
O       -0.45327200      -2.42060500      -0.83861300
O        0.05705000      -0.94167100       1.04367500
O        1.85800300      -2.32849900       0.10121000
O        1.05363600      -0.45269200      -1.15768300
H        0.29460000       0.16001100      -1.33240700
S       -1.08832300       2.42222900      -0.45238800
O        0.21910300       2.88993300       0.04126600
O       -1.03264900       1.22548200      -1.30933300
O       -2.10839300       2.31764600       0.61113200
O       -1.60663000       3.56544300      -1.47658200
H       -1.56340600       4.41930500      -1.02476200
H        5.72585800      -0.52396600      -1.12325800
H        3.28991900      -1.91744900      -0.57468800
C        4.74350700      -0.64786700      -0.65019900
O        4.18953100      -1.77691600      -0.99006400
O        4.28534500       0.20156600       0.09887700
H       -4.16299100      -0.37583100      -0.62162100
H       -2.55407000      -0.83595900      -1.22612600
H       -4.08178700      -2.83852900      -1.03942800
H       -2.64983600      -2.96457000      -0.01631000
H       -5.37385800      -2.37888600       0.89740400
H       -4.28900000      -3.43910200       1.50656000
H       -2.61416600       0.64063200       0.80959100
H       -3.20351800      -0.74528300       1.61691400
C       -3.26250800      -0.95859100      -0.40825200
C       -3.59025800      -2.42389800      -0.15108800
N       -2.65111000      -0.39802500       0.82469400
N       -4.38641500      -2.52792400       1.07567200
H       -1.66117800      -0.71527300       0.93522100
N        1.94261300       1.08968400       1.29865800
H        2.73481300       0.71039500       0.74557100
H        1.44547500       1.81102100       0.74499300
C        2.41056000       1.62476900       2.59217700
H        1.56109100       2.03303700       3.13943400
H        2.87247400       0.82062900       3.16445500
H        3.14347500       2.41027300       2.41069600
H        1.25632200       0.31780900       1.41430500
