42
2msa1nta1ma1eda-1
H       -2.43255300       1.35948100      -1.50038800
H       -1.03935700       2.44003300      -1.77885200
H       -0.49338200       0.28156600      -2.69814000
H        0.54737800       0.58151300      -1.29773900
H       -0.24260900      -1.64444200      -1.39514900
H       -0.73483300      -0.92311100      -0.01390400
H       -1.77865200       1.09906800       0.76843100
H       -0.33955400       2.04135600       0.49419200
C       -1.38959500       1.55635400      -1.24291400
C       -0.48101000       0.39375600      -1.61285500
N       -1.33640500       1.87464900       0.21045300
N       -0.88618100      -0.90984800      -1.02912900
N        3.66365400       0.70573700       0.75375300
H        4.32547700       1.40358900       0.41697200
C        3.94544100       0.27033300       2.13768500
H        3.91526300       1.13236100       2.80413600
H        3.17306600      -0.44550000       2.41806400
H        4.92604900      -0.20363400       2.18025700
H        2.72547400       1.16811700       0.70371200
N        1.69931500       3.18368600      -0.14022100
O        1.34922600       2.16145500       0.57682100
O        2.90176700       3.39551700      -0.30769400
O        0.80847700       3.88338500      -0.62794100
H       -1.87667500       2.71871600       0.39387000
S        2.13107800      -2.17790900      -0.35341300
O        1.31320500      -2.42389400      -1.56972300
O        1.40705300      -1.35879700       0.65515500
O        3.47808100      -1.61661000      -0.64985200
H        3.65536600      -0.12596900       0.11392000
C        2.41754700      -3.78028800       0.37526700
H        1.45031200      -4.23410500       0.59175700
H        2.97357200      -4.38443500      -0.34180100
H        2.99198800      -3.64511200       1.29195100
S       -3.85845400      -0.32142600       0.38180000
O       -4.37881200       1.03290200       0.13658100
O       -2.61267700      -0.29023300       1.22711100
O       -3.61699200      -1.10956600      -0.86110600
H       -1.89935500      -1.12205500      -1.17503800
C       -5.07148800      -1.22336600       1.32185100
H       -5.24186900      -0.69006100       2.25699700
H       -5.98586900      -1.26711700       0.72982600
H       -4.68390700      -2.22448200       1.50972900
42
2msa1nta1ma1eda-4
H        0.60725200      -0.73326600       2.15413400
H       -0.47608400      -1.78673600       3.08253500
H        0.19773700      -2.97257100       1.15760200
H       -1.52858100      -2.58405600       0.95598100
H        0.53114400      -2.14625500      -0.76461200
H       -1.07381400      -1.53210500      -0.92661700
H       -1.61959400       0.15320300       3.13809200
H       -1.03085900       0.74058400       1.72062600
C       -0.37729600      -1.20453700       2.16438500
C       -0.51999900      -2.16664200       0.99690300
N       -1.40947300      -0.12672700       2.18242900
N       -0.21585300      -1.57256000      -0.33347000
N        3.84310600       0.87325600       0.02437900
H        3.23950200       1.68295800       0.29909100
C        3.98314000       0.85296800      -1.45304800
H        4.45773400       1.77724100      -1.78246700
H        4.57078900      -0.01710900      -1.74211600
H        2.97856800       0.78420800      -1.86891500
H        4.74798900       0.93803800       0.48452700
N        2.94652200      -2.25081300      -0.25010500
O        4.12759200      -2.21258000      -0.60238300
O        2.12965400      -3.04766500      -0.76159600
O        2.52836600      -1.44365700       0.64576700
H        3.37265800      -0.01064300       0.35223400
S        0.70340200       2.21707400       0.21293800
O        2.01311100       2.89971600       0.38279400
O       -0.01969600       2.03578000       1.49952400
O        0.87324200       0.92935500      -0.52005000
H        0.17031600      -0.60382900      -0.28434400
C       -0.32230100       3.25396900      -0.80158200
H       -0.45455300       4.20551500      -0.28613100
H        0.18052000       3.39769800      -1.75810500
H       -1.27452500       2.73411300      -0.92844900
S       -3.38873500      -0.31760400      -0.57155400
O       -2.70040400      -1.26451500      -1.48817000
O       -2.74369700       1.00668000      -0.49550800
O       -3.56406200      -0.91507300       0.79621400
H       -2.31304400      -0.41978800       1.70868100
C       -5.03000600      -0.10074500      -1.22754700
H       -5.50880100      -1.07832000      -1.28122700
H       -5.57852200       0.56535800      -0.56163800
H       -4.93471000       0.33775800      -2.22106400
42
2msa1nta1ma1eda-3
H       -1.58810300      -2.62148800       1.78910600
H       -0.10011400      -3.50636000       2.22778700
H       -0.28420400      -1.40791800       3.48837400
H        1.15265800      -1.38254800       2.44292700
H       -0.25705200       0.74015900       2.38966400
H        0.17246100       0.04734400       0.98292900
H       -0.40116300      -3.54461400      -0.11351100
H       -0.58632800      -1.90111300      -0.26032500
C       -0.49719500      -2.61326200       1.74165300
C        0.06041200      -1.38417200       2.45294000
N       -0.11039800      -2.66176900       0.30364700
N       -0.39775500      -0.12963900       1.82370800
N        0.27890400       1.49700800      -1.65884200
H        1.07357600       1.12259800      -1.11057200
C        0.70958700       2.06686600      -2.94846400
H        1.26507900       1.30590400      -3.49602100
H       -0.16499800       2.38152400      -3.51791100
H        1.34992400       2.92753600      -2.75750900
H       -0.36662100       0.69322900      -1.74936600
N       -0.03476900       2.90691600       1.39991900
O        0.61710600       3.86198500       0.99088600
O        0.10222800       2.45630500       2.56479100
O       -0.86780200       2.32254600       0.62698400
H       -0.19084300       2.16017700      -1.00766100
S       -2.83428500      -0.66407300      -0.65144500
O       -3.65568700      -1.62326500      -1.37924900
O       -1.37463400      -0.69009900      -1.08370600
O       -2.88150600      -0.79289200       0.83362500
H       -1.39924600      -0.18139100       1.53653900
C       -3.39427200       0.98325700      -1.03624100
H       -3.30201200       1.13187200      -2.11303500
H       -4.44108700       1.04939300      -0.73821500
H       -2.78890400       1.69601000      -0.47273900
S        2.73766200      -0.79958900      -0.50185100
O        1.87568800       0.19322900       0.22512800
O        2.59388900      -0.67237500      -1.95723900
O        2.50445400      -2.17547900       0.03386800
H        0.93662900      -2.55176200       0.17293500
C        4.41901200      -0.40140100      -0.07284600
H        4.61690400       0.61901000      -0.40117800
H        4.53162400      -0.48741600       1.00760500
H        5.07074500      -1.10654700      -0.58905400
