26
1dma1msa1sa-4
S       -2.28620700      -0.23399700       0.00240100
O       -1.68215300      -0.79300000       1.34668100
O       -3.71310700      -0.20996200       0.12486800
O       -1.58448500       1.01417700      -0.32588200
O       -1.90448800      -1.31264800      -1.07590300
H       -0.05382000       1.70661100      -0.14428000
H       -0.90874900      -1.41156000      -1.15250500
S        1.63421100      -1.05772800      -0.09283000
O        2.47804200       0.06062400      -0.58501600
O        0.70585200      -1.59433300      -1.11672000
O        0.91630000      -0.66774100       1.16263100
H       -0.67628900      -0.77855200       1.31965000
C        2.73738100      -2.38392400       0.33465800
H        3.26955500      -2.67982800      -0.56941700
H        3.43078600      -2.02012800       1.09263900
H        2.13721000      -3.20913200       0.71787400
N        0.85583900       2.20895100      -0.07812200
C        1.06699100       2.60881200       1.33063500
C        0.86229200       3.32113600      -1.05053000
H        1.57438700       1.49274800      -0.33621400
H        0.26054500       3.27515200       1.63955200
H        1.06333600       1.70183300       1.93552400
H        2.02908700       3.11530700       1.41998900
H        0.06508800       4.02233300      -0.80092600
H        1.82910100       3.82509300      -1.01571100
H        0.69316700       2.91197300      -2.04630800
26
1dma1msa1sa-3
S        2.15043200      -0.57991600       0.11176000
O        1.51247600      -0.43668100      -1.33269400
O        3.57078900      -0.68137000      -0.04675800
O        1.60057100       0.49563500       0.94671000
O        1.60429900      -1.94982400       0.64104600
H        0.39986700       1.67185300       0.55467100
H        0.60210000      -1.92410000       0.74256500
S       -1.82914300      -0.81214300       0.03336500
O       -2.39274600       0.20440500       0.92983900
O       -0.99955800      -1.85272000       0.68623200
O       -1.06826500      -0.14957900      -1.10054500
H        0.50673500      -0.40981200      -1.28672000
C       -3.17691700      -1.67633700      -0.74182800
H       -3.74278300      -2.17571300       0.04502900
H       -3.79749000      -0.94624700      -1.26103800
H       -2.76148000      -2.40336200      -1.43940400
N       -0.26408500       2.26372600       0.01478400
C        0.51824700       3.02282000      -0.98575900
C       -1.09457600       3.08496000       0.92252500
H       -0.84444300       1.55209500      -0.46915600
H        1.19573100       3.70211100      -0.46748300
H        1.09388800       2.31525000      -1.58341300
H       -0.16245200       3.58761600      -1.62386300
H       -0.44340500       3.72200800       1.52237600
H       -1.77066000       3.69928400       0.32623400
H       -1.66869600       2.40830300       1.55444400
26
1dma1msa1sa-1
S       -1.80361800      -1.13568500      -0.01634400
O       -2.92610400      -1.92374100       0.42171500
O       -0.88324600      -0.68229900       1.09997400
O       -0.90891700      -2.11730500      -0.91986000
O       -2.11151600       0.05155300      -0.85526000
H       -0.12438600      -1.63439700      -1.25211400
H       -1.23822400       1.32608900      -0.40214700
S        2.07413800      -0.21128200      -0.01561800
O        1.95021300       1.22593500       0.27770300
O        1.47265500      -0.63879300      -1.28374200
O        1.53166800      -1.06420500       1.16217900
H        0.46152600      -0.98908900       1.18492500
C        3.78992400      -0.64742900       0.00620000
H        4.26973500      -0.09429500      -0.80154600
H        4.20358400      -0.36417700       0.97355200
H        3.86746200      -1.72176400      -0.15814300
N       -0.71010300       2.17038400      -0.04042900
C       -1.30630900       2.55269800       1.25843900
C       -0.73147800       3.23057200      -1.06810500
H        0.26477800       1.85660100       0.11047800
H       -2.34988700       2.82708500       1.09900200
H       -1.25368800       1.68629300       1.91774000
H       -0.75527700       3.39416000       1.68146200
H       -1.76727800       3.50145000      -1.27651100
H       -0.18160900       4.10179300      -0.70864400
H       -0.26517500       2.84482000      -1.97454700
