60
3sa3tma-123
S        0.83095300      -2.33512300      -0.32718900
O       -0.17711300      -3.46912800      -0.79690100
O        0.59919300      -2.07467400       1.09931100
O        0.45567900      -1.10695200      -1.14142900
O        2.15855800      -2.82258400      -0.68437400
H        0.30225400       0.19827200      -0.26721300
H       -1.10598500      -3.18612600      -0.57538700
S       -2.96710600      -1.10991500      -0.72574100
O       -2.53627100      -0.05891800       0.25357200
O       -2.58662800      -2.45428400      -0.24738000
O       -4.33344000      -0.94675700      -1.18972700
O       -2.06147100      -0.80569000      -2.04004800
H       -1.11218600      -0.98182900      -1.81534800
S        1.42153100       1.88302700       0.60350800
O        0.09565300       0.99293000       0.31689300
O        0.92729000       2.86121700       1.57211400
O        2.42299600       0.92973400       1.15624700
O        1.83880300       2.41695500      -0.70589400
N       -0.87579300      -0.29568100       2.74293700
C        0.39131800      -0.33518200       3.52078600
C       -1.61260600       0.97268300       2.97212300
C       -1.72216300      -1.49037800       2.99972300
H       -2.49936400       0.96138000       2.33971600
H       -1.88758800       1.02879800       4.02774700
H       -0.95782400       1.80294400       2.70087500
H        0.92352000      -1.24684600       3.25671400
H        0.99783300       0.52773800       3.24664200
H        0.14280600      -0.31297000       4.58419200
H       -1.14198300      -2.37536000       2.74387800
H       -2.00758000      -1.49321400       4.05407600
H       -2.59627600      -1.43496300       2.35310100
H       -0.61659800      -0.31743000       1.74464500
N        4.09907000       0.07266900      -0.76932500
C        3.46725000      -0.14330200      -2.09868300
C        4.94408000       1.29213100      -0.76265900
C        4.83457300      -1.12942100      -0.30183200
H        5.33262900       1.44314100       0.24476000
H        5.76525700       1.16208500      -1.47117200
H        4.31679300       2.14004700      -1.03964700
H        2.85403500      -1.04244800      -2.05031700
H        2.84478900       0.72425600      -2.31775900
H        4.25871100      -0.25437600      -2.84400900
H        4.13612500      -1.96720700      -0.27616800
H        5.65679600      -1.33202300      -0.99215900
H        5.22438600      -0.93044800       0.69719800
H        3.34084000       0.27012300      -0.06585100
N       -2.21117000       2.29835600      -1.08643300
C       -2.06232700       3.38155700      -0.08338600
C       -1.20883100       2.40708500      -2.17843000
C       -3.59416600       2.23617000      -1.62816900
H       -1.29516300       1.51636800      -2.80079500
H       -1.43102200       3.30327600      -2.76280800
H       -0.20890500       2.47343700      -1.74832000
H       -2.81267500       3.23424100       0.69462900
H       -1.06399200       3.33752800       0.35392500
H       -2.22164200       4.34395700      -0.57475400
H       -4.28362700       2.03674500      -0.80847700
H       -3.82684700       3.18793100      -2.11072000
H       -3.65671500       1.41304500      -2.33925300
H       -2.07036200       1.39182400      -0.57733800
60
3sa3tma-56
S        1.46826900       2.21294900       0.41288200
O        1.94685500       2.39742400      -0.96874100
O        2.43487500       1.48110800       1.26090500
O        0.85507400       3.38609300       1.03859200
O        0.17791000       1.20328500       0.27749200
H        0.49477000       0.35852700      -0.14241200
S        0.75195200      -2.27309700      -0.25190100
O       -0.15560700      -2.06280000       0.90739100
O        1.19766500      -0.94556000      -0.79946100
O        1.87261800      -3.17174500      -0.00863200
O       -0.11259100      -2.94604500      -1.39805600
H       -0.92586000      -2.38611900      -1.56204200
S       -3.05015200      -1.06355900      -0.41169600
O       -2.20626800      -1.34181700      -1.61086700
O       -2.52255300       0.15511200       0.28416600
O       -4.47786900      -1.02954400      -0.65884000
O       -2.80915600      -2.28046500       0.60457200
H       -1.83360100      -2.36399300       0.74944700
N       -1.84041200       1.89075700      -1.79203500
C       -3.16101100       1.66690500      -2.43770900
C       -1.70631300       3.28570600      -1.30050000
C       -0.72664500       1.50207900      -2.69982400
H       -0.78003800       3.38680600      -0.73577200
H       -1.70561700       3.96102700      -2.15868000
H       -2.55637200       3.50559000      -0.65340200
H       -3.19507100       0.64710100      -2.81974000
H       -3.94564800       1.79546000      -1.69214500
H       -3.27932200       2.38726200      -3.24979600
H       -0.78471100       0.42397700      -2.85166200
H       -0.85464500       2.03365200      -3.64585600
H        0.22335200       1.77332100      -2.23766900
H       -1.81264300       1.26501400      -0.95699900
N        3.93347700      -0.53443100      -0.58874800
C        4.19428800      -1.55452400      -1.63766000
C        4.60558600       0.75646800      -0.88858800
C        4.28657300      -1.03899000       0.76555300
H        4.37336300       1.45621200      -0.08812100
H        5.68011600       0.57391900      -0.96345800
H        4.20986300       1.15040200      -1.82359100
H        3.62919600      -2.45382100      -1.39053400
H        3.86164100      -1.15841700      -2.59722000
H        5.26594600      -1.76261000      -1.66629000
H        3.73927900      -1.96745100       0.93374400
H        5.36435800      -1.21261900       0.80292400
H        3.98609200      -0.28077100       1.48792900
H        2.90287400      -0.39405800      -0.58571000
N       -1.07138300       0.26325100       2.70709800
C       -1.46343800       1.68746600       2.87769400
C       -2.08553400      -0.65228900       3.28726200
C        0.28382200      -0.01174300       3.25354600
H       -1.76302000      -1.67964100       3.12445600
H       -2.16886600      -0.44648300       4.35649400
H       -3.03566500      -0.48667500       2.78205400
H       -0.71170000       2.32340300       2.40694800
H       -2.42945800       1.82771800       2.39257800
H       -1.53592200       1.90222800       3.94611000
H        1.00700500       0.64793300       2.77238000
H        0.25974100       0.15997400       4.33207700
H        0.53163700      -1.04851600       3.02819600
H       -1.05553600       0.09711200       1.68617700
60
3sa3tma-93
S       -0.65649100       2.40576500       0.00122900
O        0.22977800       2.13184100       1.16447300
O       -1.75485500       3.32686100       0.26259700
O        0.24073100       3.11073000      -1.10601000
O       -1.12837000       1.11547300      -0.59763700
H       -0.47528700      -0.26669400      -0.08518400
H        1.06463200       2.56999600      -1.25581000
S        3.10958600       0.95856100      -0.23080700
O        4.54817900       0.89138700      -0.38724900
O        2.36403400       1.53789300      -1.38312000
O        2.48422800      -0.36092400       0.13290800
O        2.84288900       1.91974900       1.01893300
H        1.86433900       2.10344500       1.08160500
S       -1.58787200      -2.10379200       0.14657200
O       -2.36211500      -1.65091400       1.32108000
O       -0.22101300      -1.20343900       0.15193400
O       -1.05864900      -3.46441100       0.23136100
O       -2.25290900      -1.74903900      -1.12737100
H       -3.00326000       0.18815700      -0.44553500
N       -3.95891700       0.54612700      -0.28140400
C       -4.89617300      -0.59421500      -0.44800900
C       -4.00073600       1.08254800       1.10697400
C       -4.18871500       1.61311000      -1.28994800
H       -3.31796400       1.93027500       1.17052100
H       -5.02341800       1.40147700       1.32050800
H       -3.69032200       0.28186300       1.77742600
H       -4.76621700      -1.01285400      -1.44441600
H       -4.64263200      -1.35156400       0.29249700
H       -5.91468500      -0.22612800      -0.30587200
H       -4.05297600       1.18470600      -2.28312500
H       -5.20815500       1.98745000      -1.17507600
H       -3.46547900       2.41079500      -1.11943200
N        1.57356300      -1.47931100      -2.24292100
C        0.42853600      -0.81624300      -2.92399400
C        2.85526700      -1.18836400      -2.93808700
C        1.36333200      -2.94074000      -2.08236800
H        3.67864500      -1.55745300      -2.32603900
H        2.84753400      -1.68621300      -3.90996400
H        2.95040600      -0.10924400      -3.05386900
H       -0.50122100      -1.11350900      -2.43777100
H        0.56624800       0.26164100      -2.83888600
H        0.42734200      -1.12515500      -3.97208700
H        0.47687200      -3.11968100      -1.47334100
H        1.24576700      -3.38822500      -3.07169500
H        2.23866600      -3.36123300      -1.58560500
H        1.66278000      -1.07195000      -1.28542800
N        1.35037900      -0.93870500       2.57949300
C        2.55599700      -0.38465100       3.24662400
C        0.09711500      -0.39748800       3.17163700
C        1.36810000      -2.42434700       2.57471300
H       -0.75791800      -0.86621900       2.68231700
H        0.09926700      -0.62157600       4.24096000
H        0.07268600       0.67814800       2.99483600
H        3.44015300      -0.73065900       2.71184500
H        2.51920500       0.70241900       3.19610300
H        2.57151700      -0.72462600       4.28417800
H        2.29161000      -2.75278300       2.09689900
H        1.33017800      -2.77857600       3.60711600
H        0.51162100      -2.79424600       2.01069600
H        1.40954700      -0.64642900       1.58311900
