Gly_1sa.log
 OpenBabel02281910183D
Gaussian users/kemi/kmacke/programs/G09D/g09/g09 # opt freq wb97xd 6-31++g(d,p)
 17 15  0  0  0  0  0  0  0  0999 V2000
    2.0390   -0.0088   -0.0877 S   0  0  0  0  0  0  0  0  0  0  0  0
    1.3022    1.2186   -0.3380 O   0  0  0  0  0  0  0  0  0  0  0  0
    3.3686   -0.1997   -0.5943 O   0  0  0  0  0  0  0  0  0  0  0  0
    2.0668   -0.1156    1.5186 O   0  0  0  0  0  0  0  0  0  0  0  0
    2.7212   -0.7793    1.7819 H   0  0  0  0  0  0  0  0  0  0  0  0
    1.1694   -1.2360   -0.5145 O   0  0  0  0  0  0  0  0  0  0  0  0
    0.1827   -1.0424   -0.3687 H   0  0  0  0  0  0  0  0  0  0  0  0
   -4.1446   -0.8882    0.0765 N   0  0  0  0  0  0  0  0  0  0  0  0
   -3.8008   -1.5139    0.7962 H   0  0  0  0  0  0  0  0  0  0  0  0
   -3.4521    0.3745    0.1124 C   0  0  0  0  0  0  0  0  0  0  0  0
   -1.9434    0.3202   -0.0502 C   0  0  0  0  0  0  0  0  0  0  0  0
   -3.8386    1.0407   -0.6661 H   0  0  0  0  0  0  0  0  0  0  0  0
   -3.6502    0.8851    1.0615 H   0  0  0  0  0  0  0  0  0  0  0  0
   -1.3269   -0.7381   -0.1472 O   0  0  0  0  0  0  0  0  0  0  0  0
   -1.3851    1.5093   -0.0666 O   0  0  0  0  0  0  0  0  0  0  0  0
   -0.4050    1.4473   -0.1612 H   0  0  0  0  0  0  0  0  0  0  0  0
   -4.0079   -1.3547   -0.8131 H   0  0  0  0  0  0  0  0  0  0  0  0
  1  4  1  0  0  0  0
  2  1  2  0  0  0  0
  3  1  2  0  0  0  0
  4  5  1  0  0  0  0
  6  7  1  0  0  0  0
  6  1  1  0  0  0  0
  8 10  1  0  0  0  0
  8  9  1  0  0  0  0
 10 13  1  0  0  0  0
 11 10  1  0  0  0  0
 12 10  1  0  0  0  0
 14 11  2  0  0  0  0
 15 11  1  0  0  0  0
 16 15  1  0  0  0  0
 17  8  1  0  0  0  0
M  END
$$$$
