mGly_2sa_1a.log
 OpenBabel02281910183D
Gaussian users/kemi/kmacke/programs/G09D/g09/g09 # opt freq wb97xd 6-31++g(d,p)
 27 23  0  0  0  0  0  0  0  0999 V2000
   -0.8975    2.5653    0.5323 N   0  0  0  0  0  0  0  0  0  0  0  0
   -1.0283    3.2565   -0.2004 H   0  0  0  0  0  0  0  0  0  0  0  0
   -0.9016    3.0672    1.4149 H   0  0  0  0  0  0  0  0  0  0  0  0
   -1.7368    1.9778    0.5210 H   0  0  0  0  0  0  0  0  0  0  0  0
    4.4669    0.0073   -0.1907 S   0  0  0  0  0  0  0  0  0  0  0  0
    5.8839    0.2560   -0.4353 O   0  0  0  0  0  0  0  0  0  0  0  0
    3.8329    1.0048    0.7196 O   0  0  0  0  0  0  0  0  0  0  0  0
    3.6162   -0.3015   -1.3430 O   0  0  0  0  0  0  0  0  0  0  0  0
    1.3042    0.5689   -1.0370 H   0  0  0  0  0  0  0  0  0  0  0  0
    4.4141   -1.4117    0.6649 O   0  0  0  0  0  0  0  0  0  0  0  0
    5.1124   -1.3612    1.3292 H   0  0  0  0  0  0  0  0  0  0  0  0
   -4.1952   -0.0088   -0.0942 S   0  0  0  0  0  0  0  0  0  0  0  0
   -3.5371    1.0873    0.6173 O   0  0  0  0  0  0  0  0  0  0  0  0
   -5.6176    0.0666   -0.3220 O   0  0  0  0  0  0  0  0  0  0  0  0
   -3.4856   -0.1945   -1.4878 O   0  0  0  0  0  0  0  0  0  0  0  0
   -2.4688   -0.2831   -1.3360 H   0  0  0  0  0  0  0  0  0  0  0  0
   -3.8939   -1.3557    0.6591 O   0  0  0  0  0  0  0  0  0  0  0  0
   -2.8754   -1.4714    0.7803 H   0  0  0  0  0  0  0  0  0  0  0  0
    1.2235    0.7343   -0.0333 N   0  0  0  0  0  0  0  0  0  0  0  0
    2.1835    0.9758    0.3119 H   0  0  0  0  0  0  0  0  0  0  0  0
    0.7425   -0.4982    0.6254 C   0  0  0  0  0  0  0  0  0  0  0  0
   -0.6745   -0.8248    0.1569 C   0  0  0  0  0  0  0  0  0  0  0  0
    1.4313   -1.3121    0.3863 H   0  0  0  0  0  0  0  0  0  0  0  0
    0.7486   -0.3435    1.7043 H   0  0  0  0  0  0  0  0  0  0  0  0
   -1.0088   -0.3452   -0.9600 O   0  0  0  0  0  0  0  0  0  0  0  0
   -1.3709   -1.5206    0.9322 O   0  0  0  0  0  0  0  0  0  0  0  0
    0.5275    1.5047    0.1387 H   0  0  0  0  0  0  0  0  0  0  0  0
  1  3  1  0  0  0  0
  2  1  1  0  0  0  0
  4  1  1  0  0  0  0
  5 10  1  0  0  0  0
  5  7  1  0  0  0  0
  6  5  2  0  0  0  0
  8  5  2  0  0  0  0
  9 19  1  0  0  0  0
 10 11  1  0  0  0  0
 12 13  2  0  0  0  0
 12 17  1  0  0  0  0
 14 12  2  0  0  0  0
 15 16  1  0  0  0  0
 15 12  1  0  0  0  0
 17 18  1  0  0  0  0
 19 27  1  0  0  0  0
 19 20  1  0  0  0  0
 19 21  1  0  0  0  0
 21 24  1  0  0  0  0
 22 21  1  0  0  0  0
 22 26  1  0  0  0  0
 23 21  1  0  0  0  0
 25 22  2  0  0  0  0
M  RAD  2   7   2  26   2
M  END
$$$$
