mGly_1sa_1a.log
 OpenBabel02281910183D
Gaussian users/kemi/kmacke/programs/G09D/g09/g09 # opt freq wb97xd 6-31++g(d,p)
 20 17  0  0  0  0  0  0  0  0999 V2000
   -1.3351    2.3452   -0.4659 N   0  0  0  0  0  0  0  0  0  0  0  0
   -1.2185    3.2728   -0.8623 H   0  0  0  0  0  0  0  0  0  0  0  0
   -0.5297    1.7968   -0.7820 H   0  0  0  0  0  0  0  0  0  0  0  0
   -1.1992    2.4358    0.5375 H   0  0  0  0  0  0  0  0  0  0  0  0
    2.0355    0.0113   -0.0724 S   0  0  0  0  0  0  0  0  0  0  0  0
    1.3214    0.9271   -0.9811 O   0  0  0  0  0  0  0  0  0  0  0  0
    3.4779    0.1835    0.0128 O   0  0  0  0  0  0  0  0  0  0  0  0
    1.4973    0.3585    1.4275 O   0  0  0  0  0  0  0  0  0  0  0  0
    0.5490    0.1006    1.4451 H   0  0  0  0  0  0  0  0  0  0  0  0
    1.6050   -1.4104   -0.2904 O   0  0  0  0  0  0  0  0  0  0  0  0
    0.1143   -1.5691   -0.5198 H   0  0  0  0  0  0  0  0  0  0  0  0
   -3.7566    0.3918    0.2700 N   0  0  0  0  0  0  0  0  0  0  0  0
   -3.2665    1.2395   -0.0241 H   0  0  0  0  0  0  0  0  0  0  0  0
   -3.0518   -0.7229   -0.3320 C   0  0  0  0  0  0  0  0  0  0  0  0
   -1.5942   -0.8686    0.0902 C   0  0  0  0  0  0  0  0  0  0  0  0
   -3.5562   -1.6687   -0.0949 H   0  0  0  0  0  0  0  0  0  0  0  0
   -3.0716   -0.6246   -1.4205 H   0  0  0  0  0  0  0  0  0  0  0  0
   -1.1637   -0.3402    1.1125 O   0  0  0  0  0  0  0  0  0  0  0  0
   -0.8926   -1.6081   -0.7283 O   0  0  0  0  0  0  0  0  0  0  0  0
   -3.6337    0.3440    1.2777 H   0  0  0  0  0  0  0  0  0  0  0  0
  1  4  1  0  0  0  0
  2  1  1  0  0  0  0
  3  1  1  0  0  0  0
  5  7  1  0  0  0  0
  5  8  1  0  0  0  0
  6  5  2  0  0  0  0
  8  9  1  0  0  0  0
 10  5  2  0  0  0  0
 12 20  1  0  0  0  0
 13 12  1  0  0  0  0
 14 16  1  0  0  0  0
 14 15  1  0  0  0  0
 14 12  1  0  0  0  0
 15 18  2  0  0  0  0
 17 14  1  0  0  0  0
 19 11  1  0  0  0  0
 19 15  1  0  0  0  0
M  RAD  1   7   2
M  END
$$$$
