pGly_2sa_1a.log
 OpenBabel02281910183D
Gaussian users/kemi/kmacke/programs/G09D/g09/g09 # opt freq wb97xd 6-31++g(d,p)
 29 25  0  0  0  0  0  0  0  0999 V2000
   -4.0498    0.2373    0.7177 N   0  0  0  0  0  0  0  0  0  0  0  0
   -3.3032    0.9489    0.6452 H   0  0  0  0  0  0  0  0  0  0  0  0
   -4.7130    0.4866    1.4498 H   0  0  0  0  0  0  0  0  0  0  0  0
   -4.5284    0.1629   -0.1794 H   0  0  0  0  0  0  0  0  0  0  0  0
   -0.5298    2.1987   -0.0403 S   0  0  0  0  0  0  0  0  0  0  0  0
   -1.7462    1.8770    0.6787 O   0  0  0  0  0  0  0  0  0  0  0  0
    0.7045    2.3958    0.7031 O   0  0  0  0  0  0  0  0  0  0  0  0
   -0.2433    1.1391   -1.1386 O   0  0  0  0  0  0  0  0  0  0  0  0
   -0.9393    0.3537   -1.1545 H   0  0  0  0  0  0  0  0  0  0  0  0
   -0.8551    3.5231   -0.8460 O   0  0  0  0  0  0  0  0  0  0  0  0
   -0.0434    3.9853   -1.1083 H   0  0  0  0  0  0  0  0  0  0  0  0
   -1.5111   -1.8578   -0.1175 S   0  0  0  0  0  0  0  0  0  0  0  0
   -0.1041   -1.8469    0.3052 O   0  0  0  0  0  0  0  0  0  0  0  0
   -1.8567   -0.7336   -1.0347 O   0  0  0  0  0  0  0  0  0  0  0  0
   -1.7115   -3.1283   -1.0647 O   0  0  0  0  0  0  0  0  0  0  0  0
   -1.6251   -3.9457   -0.5507 H   0  0  0  0  0  0  0  0  0  0  0  0
   -2.4748   -1.9655    0.9897 O   0  0  0  0  0  0  0  0  0  0  0  0
   -3.5762   -0.6784    0.9252 H   0  0  0  0  0  0  0  0  0  0  0  0
    1.9279   -0.1740    0.9742 N   0  0  0  0  0  0  0  0  0  0  0  0
    2.5418   -0.4725    1.7463 H   0  0  0  0  0  0  0  0  0  0  0  0
    2.7061   -0.2604   -0.2872 C   0  0  0  0  0  0  0  0  0  0  0  0
    4.1484   -0.5600    0.0770 C   0  0  0  0  0  0  0  0  0  0  0  0
    2.3004   -1.0610   -0.9089 H   0  0  0  0  0  0  0  0  0  0  0  0
    2.6273    0.6763   -0.8398 H   0  0  0  0  0  0  0  0  0  0  0  0
    4.4960   -0.7533    1.2188 O   0  0  0  0  0  0  0  0  0  0  0  0
    4.9293   -0.5872   -0.9889 O   0  0  0  0  0  0  0  0  0  0  0  0
    1.0902   -0.7894    0.9148 H   0  0  0  0  0  0  0  0  0  0  0  0
    5.8374   -0.7959   -0.7198 H   0  0  0  0  0  0  0  0  0  0  0  0
    1.6072    0.7920    1.1413 H   0  0  0  0  0  0  0  0  0  0  0  0
  1 18  1  0  0  0  0
  1  3  1  0  0  0  0
  2  1  1  0  0  0  0
  4  1  1  0  0  0  0
  5  6  2  0  0  0  0
  5  7  2  0  0  0  0
  8  5  1  0  0  0  0
  9  8  1  0  0  0  0
 10  5  1  0  0  0  0
 11 10  1  0  0  0  0
 12 13  2  0  0  0  0
 12 17  1  0  0  0  0
 14 12  2  0  0  0  0
 15 16  1  0  0  0  0
 15 12  1  0  0  0  0
 19 29  1  0  0  0  0
 19 20  1  0  0  0  0
 21 22  1  0  0  0  0
 21 19  1  0  0  0  0
 22 25  2  0  0  0  0
 23 21  1  0  0  0  0
 24 21  1  0  0  0  0
 26 28  1  0  0  0  0
 26 22  1  0  0  0  0
 27 19  1  0  0  0  0
M  RAD  1  17   2
M  END
$$$$
