pGly_1a.log
 OpenBabel02281910183D
Gaussian users/kemi/kmacke/programs/G09D/g09/g09 # opt freq wb97xd 6-31++g(d,p)
 15 13  0  0  0  0  0  0  0  0999 V2000
    2.4609   -0.7224    0.1702 N   0  0  0  0  0  0  0  0  0  0  0  0
    3.2027   -0.7896   -0.5256 H   0  0  0  0  0  0  0  0  0  0  0  0
    1.7442   -1.4388    0.0002 H   0  0  0  0  0  0  0  0  0  0  0  0
    2.8590   -0.8325    1.1019 H   0  0  0  0  0  0  0  0  0  0  0  0
    0.7725    1.4382   -0.2230 N   0  0  0  0  0  0  0  0  0  0  0  0
    0.7832    1.5645   -1.2338 H   0  0  0  0  0  0  0  0  0  0  0  0
   -0.6018    1.1628    0.2189 C   0  0  0  0  0  0  0  0  0  0  0  0
   -0.9918   -0.2830   -0.0237 C   0  0  0  0  0  0  0  0  0  0  0  0
   -0.6773    1.3338    1.2978 H   0  0  0  0  0  0  0  0  0  0  0  0
   -1.3461    1.8107   -0.2547 H   0  0  0  0  0  0  0  0  0  0  0  0
   -0.2148   -1.1833   -0.2791 O   0  0  0  0  0  0  0  0  0  0  0  0
   -2.2967   -0.4520    0.1032 O   0  0  0  0  0  0  0  0  0  0  0  0
    1.9027    0.2023    0.0744 H   0  0  0  0  0  0  0  0  0  0  0  0
   -2.5207   -1.3873   -0.0215 H   0  0  0  0  0  0  0  0  0  0  0  0
    1.0718    2.3291    0.1662 H   0  0  0  0  0  0  0  0  0  0  0  0
  1  4  1  0  0  0  0
  2  1  1  0  0  0  0
  3  1  1  0  0  0  0
  5 15  1  0  0  0  0
  5  7  1  0  0  0  0
  6  5  1  0  0  0  0
  7  9  1  0  0  0  0
  8 12  1  0  0  0  0
  8  7  1  0  0  0  0
 10  7  1  0  0  0  0
 11  8  2  0  0  0  0
 13  1  1  0  0  0  0
 14 12  1  0  0  0  0
M  END
$$$$
