55
4sa2am1ma1eda-48
S       -0.70359600      -2.71755100      -1.39523800
O        0.65908400      -2.20288500      -1.71436200
O       -1.19623300      -3.78467100      -2.24655000
O       -1.60219700      -1.40695200      -1.67444500
O       -0.84504400      -3.01463400       0.05921900
H       -2.56881900      -1.64892200      -1.51350100
H       -0.16761400      -2.23881600       1.28634000
S        3.89355700       0.61968500      -0.49458100
O        4.58816400      -0.66525200      -0.66390800
O        3.43137900       1.24057200      -1.74410800
O        2.84223300       0.55149000       0.54795900
O        4.95815400       1.65766100       0.16469900
H        5.63088200       1.86697200      -0.49815400
S       -1.52694800       3.36207400      -0.68674400
O       -0.12907800       3.53334900      -0.23893900
O       -1.65465400       2.29818700      -1.71124700
O       -2.52524700       3.25364700       0.38305300
O       -1.92284700       4.75436800      -1.41252800
H       -1.22979400       4.97559300      -2.04954000
S       -0.44577300      -0.36499600       2.29231900
O        0.34294200      -1.73391900       1.98946800
O        0.40496600       0.33638800       3.26060100
O       -0.48753000       0.35508000       0.97298000
O       -1.79338100      -0.72165500       2.73012800
N        1.40543200       2.49112600       1.83217900
H        0.70794300       2.87168700       1.16246000
H        2.07569300       1.89246100       1.30592900
H        1.89303200       3.24775200       2.30254900
H        0.95040600       1.85297900       2.51579200
N        0.62367800       0.64228000      -1.58750600
H        0.51128200       0.55076300      -0.56479300
H       -0.16431500       1.22384000      -1.91242400
H        1.54004700       1.06195100      -1.79971300
H        0.57645000      -0.31312400      -1.96813500
C        2.67020100      -3.78191100       0.72745000
N        2.54102000      -2.37508300       0.28971900
H        2.12666400      -1.79255100       1.02841300
H        3.43680300      -1.94157100       0.00622900
H        1.67797300      -4.16315700       0.96853400
H        3.10013800      -4.36657000      -0.08507000
H        3.31312800      -3.83114700       1.60550000
H        1.88398500      -2.31070300      -0.51962300
C       -4.16604800      -0.23586600       0.79241900
N       -3.09359200       0.54901000       0.13303100
C       -4.01092600      -1.73434100       0.59049000
N       -4.04601500      -2.10437300      -0.83261000
H       -3.14246600       1.56411800       0.35003400
H       -3.09540000       0.48313000      -0.88570800
H       -4.10423000      -0.01767400       1.85890600
H       -5.12392700       0.12778000       0.40777600
H       -4.79937000      -2.22613500       1.17329400
H       -3.04908400      -2.05564100       0.99829100
H       -4.94056900      -1.87936300      -1.25955500
H       -3.92063700      -3.10978700      -0.93096100
H       -2.13275400       0.27452200       0.44298800
55
4sa2am1ma1eda-24
S       -2.58504400       2.21417400      -0.89852600
O       -3.38119300       1.91527200       0.31108800
O       -2.87531800       3.44578000      -1.59342800
O       -1.11122000       2.04542800      -0.59090600
O       -2.88312700       1.02583000      -1.94244500
H       -3.21653900       0.22520000      -1.47163400
H       -0.70320500       2.02631400       0.90839600
S        3.54110900      -1.72072400      -0.59822900
O        4.53595700      -1.07734200       0.27479000
O        2.69298500      -2.70881000       0.09754800
O        2.79938600      -0.76524600      -1.44228400
O        4.37151800      -2.57491900      -1.70175300
H        4.88705000      -3.24718600      -1.23557300
S       -2.83730900      -2.31618600      -0.15890400
O       -2.89706400      -2.35833400       1.31622500
O       -3.66347800      -1.24904400      -0.73976400
O       -1.44938300      -2.37134700      -0.66608200
O       -3.45141100      -3.71059700      -0.69355900
H       -4.40941500      -3.69872200      -0.55830200
S        0.54795200       0.72894900       2.10539000
O        1.76681700       1.25536300       2.73485800
O        0.79709300       0.12245300       0.78198900
O       -0.22939200      -0.19967600       2.97943200
O       -0.41588600       1.97558000       1.87682200
N        0.34988800      -2.62448900       1.50705100
H        1.30268300      -2.53016200       1.09223300
H        0.25533100      -3.52086800       1.97609600
H        0.15253100      -1.84786400       2.16191100
H       -0.33026700      -2.57041100       0.72729700
N       -2.95815000       0.22271300       2.41585000
H       -3.59184400       0.49670700       3.16127000
H       -1.97698000       0.21014000       2.75853600
H       -3.16688000      -0.73541800       2.08264800
H       -3.05649700       0.89234700       1.61325000
C       -0.01887400       0.05360400      -3.28255600
N        0.08391900      -0.21834100      -1.83448000
H       -0.21849100       0.60063900      -1.27962300
H       -0.51368300      -1.00348100      -1.54094700
H        0.66145400       0.86904200      -3.52689400
H        0.26857400      -0.83916000      -3.83719700
H       -1.04415700       0.33990400      -3.51447000
H        1.05799900      -0.44311700      -1.56415000
C        3.63719900       2.87799800       0.11984900
N        3.38542700       1.45419900       0.43213300
C        2.29595300       3.53643400      -0.20406600
N        1.66078500       2.82736600      -1.31044200
H        4.19880800       0.82420900       0.41208600
H        2.72727100       1.07597800      -0.26914900
H        4.12273500       3.34818400       0.97718100
H        4.31032300       2.92069700      -0.74012800
H        2.46653400       4.60379000      -0.39454600
H        1.64576000       3.46708100       0.67437700
H        1.94660200       3.20716500      -2.20575900
H        0.64625000       2.87754800      -1.24932100
H        2.92169000       1.35056200       1.35633000
55
4sa2am1ma1eda-2
S       -2.73930900       1.84303500      -0.75710600
O       -2.65006500       1.77750400       0.85309700
O       -4.18407300       1.68142700      -0.98798300
O       -1.95927400       0.67553200      -1.25581300
O       -2.15103200       3.12011800      -1.17250800
H       -2.64429500      -0.79537600      -1.25857500
H       -1.72768800       2.02416600       1.12818100
S        2.68217700      -2.24364100      -0.03058900
O        2.12060300      -0.98966000       0.60065800
O        2.60688100      -2.12272100      -1.50121000
O        3.98291200      -2.60938500       0.50520600
O        1.68699700      -3.40823000       0.42486300
H        0.77246300      -3.20529500       0.11986200
S        0.88786200       2.81415000       0.52332500
O        1.24029900       1.86030400      -0.55037400
O       -0.12138500       2.22245900       1.46430700
O        2.06819600       3.33270000       1.21775900
O        0.18318200       4.06725400      -0.13718200
H       -0.65919600       3.78051400      -0.57821100
S       -2.19740700      -2.44952500       0.04010000
O       -2.48460900      -1.58859900       1.24335500
O       -2.98064100      -1.73417300      -1.15939400
O       -0.74747000      -2.33001800      -0.29287300
O       -2.72539400      -3.79008500       0.11835400
H       -3.94373700      -0.67407300       1.08415400
N        0.47509200      -0.40130500      -1.91180700
H        0.64118000       0.47227500      -1.37657800
H       -0.14141900      -1.01460700      -1.35243800
H        0.01768500      -0.17469000      -2.78997500
H        1.35977300      -0.92686800      -2.03176400
N       -0.07965000      -0.46813500       2.10238900
H       -0.07713800       0.56148600       1.95271800
H       -0.99210200      -0.87036400       1.79855000
H        0.69949200      -0.85584000       1.52433700
H        0.08381800      -0.68339900       3.08198900
N       -4.87156200      -0.23760400       0.87193000
H       -4.71202300       0.48400900       0.12891800
H       -5.18347100       0.25588300       1.70610600
C       -5.83517700      -1.27658300       0.43343100
H       -5.42742500      -1.75149800      -0.45799800
H       -5.94706600      -2.01998400       1.22201400
H       -6.79390000      -0.81025600       0.20875700
C        4.52521900       1.41207100      -0.64658600
N        3.86113200       1.19333000       0.66253100
C        5.32043500       0.14725300      -0.99394700
N        6.03045100      -0.32690000       0.19431900
H        3.38539600       2.04680600       1.00323700
H        4.59343500       0.85867800       1.30201900
H        3.75324500       1.64443000      -1.38124300
H        5.18273000       2.27722700      -0.53165000
H        5.99854300       0.38210600      -1.82034100
H        4.63457800      -0.62502100      -1.35495700
H        7.03561400      -0.28512700       0.09472000
H        5.75604600      -1.27977600       0.41827500
H        3.15015700       0.43273800       0.59319800
