2a_H.log
 OpenBabel02281910143D
Gaussian users/kemi/kmacke/programs/G09D/g09/g09 # opt freq 6-31++g(d,p) wb97xd
  9  7  0  0  0  0  0  0  0  0999 V2000
    1.3445   -0.0001   -0.0002 N   0  0  0  0  0  0  0  0  0  0  0  0
    1.7316    0.2723    0.9021 H   0  0  0  0  0  0  0  0  0  0  0  0
    1.7345   -0.9166   -0.2150 H   0  0  0  0  0  0  0  0  0  0  0  0
    1.7332    0.6457   -0.6856 H   0  0  0  0  0  0  0  0  0  0  0  0
   -1.3340   -0.0000   -0.0001 N   0  0  0  0  0  0  0  0  0  0  0  0
   -1.6914    0.8808    0.3717 H   0  0  0  0  0  0  0  0  0  0  0  0
   -0.1965   -0.0004   -0.0012 H   0  0  0  0  0  0  0  0  0  0  0  0
   -1.6914   -0.7617    0.5778 H   0  0  0  0  0  0  0  0  0  0  0  0
   -1.6937   -0.1190   -0.9479 H   0  0  0  0  0  0  0  0  0  0  0  0
  1  2  1  0  0  0  0
  3  1  1  0  0  0  0
  4  1  1  0  0  0  0
  5  6  1  0  0  0  0
  5  8  1  0  0  0  0
  7  5  1  0  0  0  0
  9  5  1  0  0  0  0
M  END
$$$$
