2sa_2a_H.log
 OpenBabel02281910143D
Gaussian users/kemi/kmacke/programs/G09D/g09/g09 # opt freq 6-31++g(d,p) wb97xd
 23 19  0  0  0  0  0  0  0  0999 V2000
   -2.1010   -0.1548    0.0848 S   0  0  0  0  0  0  0  0  0  0  0  0
   -1.8548    0.8589   -0.9234 O   0  0  0  0  0  0  0  0  0  0  0  0
   -1.8455   -1.5418   -0.2748 O   0  0  0  0  0  0  0  0  0  0  0  0
   -0.1477    3.0717   -0.8968 N   0  0  0  0  0  0  0  0  0  0  0  0
   -0.3528    3.8318   -0.2497 H   0  0  0  0  0  0  0  0  0  0  0  0
   -0.9456    2.4134   -0.9397 H   0  0  0  0  0  0  0  0  0  0  0  0
    0.5995   -2.7754   -1.0285 N   0  0  0  0  0  0  0  0  0  0  0  0
    0.5255   -3.3709   -1.8516 H   0  0  0  0  0  0  0  0  0  0  0  0
   -0.3228   -2.3688   -0.7895 H   0  0  0  0  0  0  0  0  0  0  0  0
    1.9998    0.0921    0.1809 S   0  0  0  0  0  0  0  0  0  0  0  0
    3.3312   -0.1560    1.0278 O   0  0  0  0  0  0  0  0  0  0  0  0
    1.8098    1.5507    0.1116 O   0  0  0  0  0  0  0  0  0  0  0  0
    0.9814   -0.6184    0.9927 O   0  0  0  0  0  0  0  0  0  0  0  0
    2.1688   -0.5443   -1.1385 O   0  0  0  0  0  0  0  0  0  0  0  0
    4.0746    0.3275    0.6364 H   0  0  0  0  0  0  0  0  0  0  0  0
   -3.6083    0.0272    0.5046 O   0  0  0  0  0  0  0  0  0  0  0  0
   -3.9032   -0.6810    1.0999 H   0  0  0  0  0  0  0  0  0  0  0  0
    0.0422    3.4523   -1.8228 H   0  0  0  0  0  0  0  0  0  0  0  0
    0.6790    2.5164   -0.5493 H   0  0  0  0  0  0  0  0  0  0  0  0
    0.9312   -3.3206   -0.2331 H   0  0  0  0  0  0  0  0  0  0  0  0
    1.2705   -1.9809   -1.1918 H   0  0  0  0  0  0  0  0  0  0  0  0
   -1.3762    0.1985    1.4196 O   0  0  0  0  0  0  0  0  0  0  0  0
   -0.3952   -0.0868    1.3620 H   0  0  0  0  0  0  0  0  0  0  0  0
  1 16  1  0  0  0  0
  1 22  1  0  0  0  0
  2  1  2  0  0  0  0
  3  1  2  0  0  0  0
  4 19  1  0  0  0  0
  4  5  1  0  0  0  0
  6  4  1  0  0  0  0
  7  9  1  0  0  0  0
  7 20  1  0  0  0  0
  8  7  1  0  0  0  0
 10 13  1  0  0  0  0
 10 11  1  0  0  0  0
 12 10  2  0  0  0  0
 14 10  2  0  0  0  0
 15 11  1  0  0  0  0
 16 17  1  0  0  0  0
 18  4  1  0  0  0  0
 21  7  1  0  0  0  0
 23 22  1  0  0  0  0
M  RAD  1  13   2
M  END
$$$$
