4sa_5a_H.log
 OpenBabel02281910143D
Gaussian users/kemi/kmacke/programs/G09D/g09/g09 # opt=(maxcycle=10000) freq wb9
 49 40  0  0  0  0  0  0  0  0999 V2000
   -1.9614    2.0351   -0.3363 S   0  0  0  0  0  0  0  0  0  0  0  0
   -2.0159    1.4664    1.0467 O   0  0  0  0  0  0  0  0  0  0  0  0
   -3.3827    1.7005   -0.9781 O   0  0  0  0  0  0  0  0  0  0  0  0
   -1.8660    3.4927   -0.3669 O   0  0  0  0  0  0  0  0  0  0  0  0
   -0.9201    1.3592   -1.1449 O   0  0  0  0  0  0  0  0  0  0  0  0
   -3.4651    0.7084   -1.0907 H   0  0  0  0  0  0  0  0  0  0  0  0
   -3.3831   -1.7179    0.1501 S   0  0  0  0  0  0  0  0  0  0  0  0
   -1.9990   -1.8926    0.5989 O   0  0  0  0  0  0  0  0  0  0  0  0
   -3.8278   -3.2122   -0.2399 O   0  0  0  0  0  0  0  0  0  0  0  0
   -4.3348   -1.2594    1.1817 O   0  0  0  0  0  0  0  0  0  0  0  0
   -3.4796   -0.9212   -1.1015 O   0  0  0  0  0  0  0  0  0  0  0  0
   -4.7720   -3.2293   -0.4533 H   0  0  0  0  0  0  0  0  0  0  0  0
    2.3409   -2.4324   -0.3074 S   0  0  0  0  0  0  0  0  0  0  0  0
    3.6193   -2.4243    0.4144 O   0  0  0  0  0  0  0  0  0  0  0  0
    2.2283   -1.4024   -1.3721 O   0  0  0  0  0  0  0  0  0  0  0  0
    2.3178   -3.7827   -1.1881 O   0  0  0  0  0  0  0  0  0  0  0  0
    0.7012    3.7923   -1.4419 N   0  0  0  0  0  0  0  0  0  0  0  0
    0.9951    4.4924   -2.1181 H   0  0  0  0  0  0  0  0  0  0  0  0
    1.3969    3.6996   -0.6621 H   0  0  0  0  0  0  0  0  0  0  0  0
    0.6458    2.8636   -1.8713 H   0  0  0  0  0  0  0  0  0  0  0  0
   -0.2401    3.9956   -1.0602 H   0  0  0  0  0  0  0  0  0  0  0  0
   -0.5678   -1.3150   -1.7850 N   0  0  0  0  0  0  0  0  0  0  0  0
   -0.7989   -0.3111   -1.6483 H   0  0  0  0  0  0  0  0  0  0  0  0
   -0.8975   -1.8072   -0.9364 H   0  0  0  0  0  0  0  0  0  0  0  0
    0.4589   -1.4180   -1.8677 H   0  0  0  0  0  0  0  0  0  0  0  0
   -1.0556   -1.6796   -2.5996 H   0  0  0  0  0  0  0  0  0  0  0  0
    0.0875   -0.2639    1.9066 N   0  0  0  0  0  0  0  0  0  0  0  0
    0.9683    0.2759    1.7643 H   0  0  0  0  0  0  0  0  0  0  0  0
    0.2130   -1.1666    1.4201 H   0  0  0  0  0  0  0  0  0  0  0  0
   -0.0617   -0.4426    2.8965 H   0  0  0  0  0  0  0  0  0  0  0  0
   -0.7244    0.2531    1.5274 H   0  0  0  0  0  0  0  0  0  0  0  0
   -4.6369    1.3332    1.7939 N   0  0  0  0  0  0  0  0  0  0  0  0
   -5.0040    1.5223    2.7237 H   0  0  0  0  0  0  0  0  0  0  0  0
   -4.6619    0.3024    1.5738 H   0  0  0  0  0  0  0  0  0  0  0  0
   -5.1635    1.8521    1.0920 H   0  0  0  0  0  0  0  0  0  0  0  0
   -3.6286    1.5924    1.7094 H   0  0  0  0  0  0  0  0  0  0  0  0
    2.9834    1.7411    0.3099 S   0  0  0  0  0  0  0  0  0  0  0  0
    4.4403    1.6834    0.0895 O   0  0  0  0  0  0  0  0  0  0  0  0
    2.2709    1.2746   -1.0608 O   0  0  0  0  0  0  0  0  0  0  0  0
    2.4445    3.0925    0.4995 O   0  0  0  0  0  0  0  0  0  0  0  0
    2.3736    0.2987   -1.1854 H   0  0  0  0  0  0  0  0  0  0  0  0
    1.1513   -2.4813    0.5553 O   0  0  0  0  0  0  0  0  0  0  0  0
    2.5708    0.7566    1.3412 O   0  0  0  0  0  0  0  0  0  0  0  0
    2.3932   -4.5504   -0.6026 H   0  0  0  0  0  0  0  0  0  0  0  0
    5.3273   -0.5191    1.3491 N   0  0  0  0  0  0  0  0  0  0  0  0
    4.6545   -1.2476    1.0176 H   0  0  0  0  0  0  0  0  0  0  0  0
    6.2836   -0.8116    1.1606 H   0  0  0  0  0  0  0  0  0  0  0  0
    5.0982    0.3795    0.8434 H   0  0  0  0  0  0  0  0  0  0  0  0
    5.1981   -0.3737    2.3480 H   0  0  0  0  0  0  0  0  0  0  0  0
  1  2  1  0  0  0  0
  3  1  1  0  0  0  0
  4  1  2  0  0  0  0
  5  1  2  0  0  0  0
  6  3  1  0  0  0  0
  7  8  2  0  0  0  0
  7 10  1  0  0  0  0
  9  7  1  0  0  0  0
 11  7  2  0  0  0  0
 12  9  1  0  0  0  0
 13 14  2  0  0  0  0
 13 42  1  0  0  0  0
 15 13  2  0  0  0  0
 16 44  1  0  0  0  0
 16 13  1  0  0  0  0
 17 21  1  0  0  0  0
 17 19  1  0  0  0  0
 18 17  1  0  0  0  0
 20 17  1  0  0  0  0
 22 23  1  0  0  0  0
 22 24  1  0  0  0  0
 25 22  1  0  0  0  0
 26 22  1  0  0  0  0
 27 30  1  0  0  0  0
 28 27  1  0  0  0  0
 29 27  1  0  0  0  0
 31 27  1  0  0  0  0
 32 33  1  0  0  0  0
 34 32  1  0  0  0  0
 35 32  1  0  0  0  0
 36 32  1  0  0  0  0
 37 40  2  0  0  0  0
 37 43  1  0  0  0  0
 38 37  2  0  0  0  0
 39 37  1  0  0  0  0
 41 39  1  0  0  0  0
 45 49  1  0  0  0  0
 46 45  1  0  0  0  0
 47 45  1  0  0  0  0
 48 45  1  0  0  0  0
M  RAD  4   2   2  10   2  42   2  43   2
M  END
$$$$
