18
1msa1fa1am-1
S       -1.27914400      -0.15568600      -0.00037100
O       -1.15184100       0.68930200      -1.22061000
O       -1.11620100       0.64970500       1.24097400
O       -0.38918800      -1.34697300      -0.03289000
C       -2.93572300      -0.80533000       0.01079100
H       -3.62955000       0.03477800       0.03839300
H       -3.07289800      -1.39191700      -0.89750800
H       -3.04618600      -1.42990800       0.89712500
H        4.03364800      -0.98608800       0.01644900
H        1.17885600      -1.39829900      -0.01183000
C        2.99007500      -0.64662800       0.00381500
O        2.16227000      -1.64402000      -0.00073500
O        2.72016100       0.54891900      -0.00407500
N        0.63347100       2.30931000       0.00105600
H        0.87526200       3.29464900      -0.00744700
H        0.02793100       2.01936400      -0.79407000
H        1.47620500       1.69159800      -0.01177500
H        0.06101600       2.02791900       0.82026600
18
1msa1fa1am-2
S       -1.32800500      -0.15472200       0.14834900
O       -1.25053500      -1.04455100       1.30088400
O       -0.20477400      -0.33510200      -0.84007000
O       -1.43275400       1.30548900       0.48450600
H       -0.06996500       1.96054800       0.14815400
C       -2.81798800      -0.54154900      -0.75047500
H       -2.77242400      -1.59291200      -1.03506000
H       -3.66308200      -0.36102000      -0.08563000
H       -2.87349400       0.09827700      -1.63089600
H        3.84023500      -1.34461200       0.27946500
H        1.08228200      -1.12359200      -0.49137000
C        2.90472500      -0.81054700       0.07304800
O        1.96116900      -1.60675700      -0.32217800
O        2.83152000       0.40657000       0.21575200
N        0.90119600       2.29038700      -0.18505000
H        0.84706300       2.47034500      -1.18435500
H        1.59088400       1.51329400      -0.02818600
H        1.20078000       3.12990400       0.30305700
18
1msa1fa1am-3
S       -1.44276900      -0.03228600      -0.05942800
O       -2.63643300       0.29807300      -0.82485900
O       -1.10930800       0.94091400       1.03567900
O       -0.21791500      -0.22376000      -0.91856400
C       -1.71923300      -1.59355200       0.75797600
H       -2.56772600      -1.47157000       1.43159400
H       -1.94283300      -2.33642800      -0.00807000
H       -0.82260700      -1.86696700       1.31507200
H        3.76002800      -1.45790700       0.29559400
H        1.03386400      -1.00329600      -0.52526400
C        2.88061700      -0.84282100       0.06809600
O        1.85914200      -1.55961900      -0.29320900
O        2.92303600       0.37852400       0.16508400
N        0.92337500       2.24705800       0.01737000
H        1.69301100       1.53676100       0.03745900
H        0.65146600       2.39837300      -0.95201700
H        0.07691800       1.81334100       0.52288900
H        1.22207900       3.12005100       0.44253100
