34
2sa2am1eda-18
S        0.76668800       1.85650700      -0.10049900
O       -0.43739800       2.70490100      -0.14318500
O        2.05082400       2.52517300      -0.16031300
O        0.76843700       1.10341600       1.33038000
O        0.64488000       0.72566300      -1.09768600
H       -0.78768800      -0.09810100      -1.19430700
H       -0.00929900       0.48528400       1.37837500
S       -1.61595300      -1.50793700       0.23013400
O       -0.50540600      -2.47142900       0.13477600
O       -1.36012600      -0.49756800       1.31731000
O       -1.62255800      -0.63903100      -1.13098400
O       -2.95800500      -2.06800200       0.28369600
N       -4.50462600       0.24217900      -1.05235000
H       -4.06266500       0.23541300      -1.96720700
H       -5.50698500       0.31868400      -1.18909200
H       -4.30202600      -0.67238300      -0.64188000
N       -2.88644600       1.71164900       0.68412800
H       -2.07985000       2.19353900       0.23600000
H       -3.35054100       2.33733500       1.33552700
H       -3.57080900       1.30712200      -0.02555800
H       -2.46871800       0.89815800       1.17850400
C        2.89493000      -1.25664400       0.75932900
N        2.01679600      -1.51199800      -0.40994800
C        4.07156100      -0.40661400       0.29222800
N        4.71062200      -1.06042500      -0.85255600
H        1.18452100      -2.09235500      -0.18396300
H        2.58980100      -1.91559200      -1.15574300
H        2.30850200      -0.73528900       1.51597600
H        3.22218300      -2.22431400       1.14910000
H        4.74490100      -0.23804800       1.14144800
H        3.69447500       0.57357100      -0.01834900
H        5.43249400      -1.71058200      -0.56245100
H        5.13734200      -0.38631400      -1.47596500
H        1.61402600      -0.60852400      -0.76078800
34
2sa2am1eda-11
S       -0.96043700      -1.93942800      -0.17043900
O        0.06214900      -3.01557900      -0.20499700
O       -2.33440100      -2.38402800      -0.31478100
O       -0.89533300      -1.30315200       1.31116000
O       -0.58117100      -0.82173900      -1.08894200
H        0.85853500      -0.16352000      -1.10802400
H       -0.11654100      -0.69675800       1.37513800
S        2.16264700       0.75276900       0.38526700
O        2.67574900       2.10802200       0.24785400
O        1.76337800       0.27441700      -1.10461600
O        3.14475600      -0.25005100       0.85541200
O        0.88516100       0.67603000       1.16238000
N        0.53338400       3.76385300      -1.14943900
H        0.70259100       3.73979400      -2.15054100
H        1.35734600       3.35259600      -0.69991700
H        0.49314100       4.74061000      -0.87590700
N        2.67298500      -2.57003800      -0.40627000
H        2.90452100      -2.39326100      -1.38126000
H        3.19035700      -3.37681200      -0.06760600
H        2.92126800      -1.70344000       0.15103100
H        1.62549300      -2.74976200      -0.32646800
C       -3.37532200       0.98778300       0.79877400
N       -3.65718200       0.42442000      -0.51541700
C       -2.49202800       2.22858100       0.62788000
N       -1.30904600       1.84645300      -0.17630400
H       -4.58370200       0.64964800      -0.85199000
H       -3.52201800      -0.58302700      -0.54323400
H       -4.27459000       1.27102900       1.35855300
H       -2.83628600       0.24703500       1.39749300
H       -2.15380800       2.63182500       1.58485500
H       -3.02802900       3.00931500       0.08168300
H       -0.59809200       1.35222700       0.39210000
H       -0.78596300       2.65356000      -0.60895300
H       -1.62876300       1.18313100      -0.89986400
34
2sa2am1eda-39
S        0.34620000       2.36781100       0.12149500
O       -0.19287000       1.30939300       1.06116600
O       -0.35232700       3.62925900       0.21767800
O       -0.04016600       1.78818600      -1.34063300
O        1.81924100       2.41110300       0.19743300
H        0.34704200       0.88285100      -1.44172100
H        0.62736600      -0.12101900       1.11854700
S        0.74110500      -1.71695100      -0.35311900
O        1.62898300      -2.86923700      -0.38647600
O        1.08965500      -1.00491500       1.05115200
O        1.06340200      -0.68510100      -1.39580000
O       -0.70705100      -2.01317200      -0.34400400
N        4.03239200      -1.68418100       1.11815100
H        3.55053300      -1.46231700       1.98489400
H        4.92479900      -2.10591300       1.35206900
H        3.45146300      -2.38537300       0.65372800
N        3.48300000       0.41044000      -0.64856800
H        3.83192800      -0.29622800       0.06687200
H        2.98213300       1.20933600      -0.20143400
H        4.23517200       0.74928300      -1.24037200
H        2.75119000      -0.07044100      -1.20524300
C       -3.32067400      -0.47655800       1.08330200
N       -2.38806900       0.06988200       0.07350000
C       -4.38727100      -1.29946800       0.36887800
N       -5.01708500      -0.47103900      -0.65762700
H       -1.69608700       0.73800000       0.48450400
H       -2.92742500       0.50338500      -0.68080900
H       -2.74379300      -1.08492000       1.78194600
H       -3.76296200       0.36305400       1.62603100
H       -5.08508800      -1.70229900       1.11432700
H       -3.90387300      -2.15121300      -0.11995500
H       -5.75273800       0.11252400      -0.27453100
H       -5.41984600      -1.02805900      -1.40079100
H       -1.80163300      -0.70810800      -0.30748600
