1sa_2w.log
 OpenBabel02281909513D
Gaussian users/kemi/kmacke/programs/G09D/g09/g09 # opt freq 6-31++g(d,p) wb97xd
 13 10  0  0  0  0  0  0  0  0999 V2000
   -1.0007   -0.1521   -0.0997 S   0  0  0  0  0  0  0  0  0  0  0  0
   -0.3983    1.1664   -0.6817 O   0  0  0  0  0  0  0  0  0  0  0  0
   -1.0997    0.1618    1.4825 O   0  0  0  0  0  0  0  0  0  0  0  0
   -2.3317   -0.2965   -0.6248 O   0  0  0  0  0  0  0  0  0  0  0  0
   -0.0375   -1.2316   -0.1828 O   0  0  0  0  0  0  0  0  0  0  0  0
    0.5859    1.2933   -0.4281 H   0  0  0  0  0  0  0  0  0  0  0  0
   -1.9098    0.6661    1.6463 H   0  0  0  0  0  0  0  0  0  0  0  0
    1.8176   -1.4188    0.0443 H   0  0  0  0  0  0  0  0  0  0  0  0
    2.7414   -1.1221    0.1061 O   0  0  0  0  0  0  0  0  0  0  0  0
    3.2381   -1.6143   -0.5522 H   0  0  0  0  0  0  0  0  0  0  0  0
    2.2827    1.9221    0.7309 H   0  0  0  0  0  0  0  0  0  0  0  0
    2.0648    1.4504   -0.0772 O   0  0  0  0  0  0  0  0  0  0  0  0
    2.4848    0.5587   -0.0211 H   0  0  0  0  0  0  0  0  0  0  0  0
  1  3  1  0  0  0  0
  2  6  1  0  0  0  0
  2  1  1  0  0  0  0
  3  7  1  0  0  0  0
  4  1  2  0  0  0  0
  5  1  2  0  0  0  0
  8  9  1  0  0  0  0
 10  9  1  0  0  0  0
 12 13  1  0  0  0  0
 12 11  1  0  0  0  0
M  END
$$$$
