4sa_4w.log
 OpenBabel02281909513D
Gaussian users/kemi/kmacke/programs/G09D/g09/g09 # opt freq 6-31++g(d,p) wb97xd
 40 29  0  0  0  0  0  0  0  0999 V2000
    3.7550   -0.5479   -0.7423 S   0  0  0  0  0  0  0  0  0  0  0  0
    3.5194   -0.2652    0.6990 O   0  0  0  0  0  0  0  0  0  0  0  0
    5.2317   -0.0228   -1.0797 O   0  0  0  0  0  0  0  0  0  0  0  0
    3.7364   -1.9854   -1.0244 O   0  0  0  0  0  0  0  0  0  0  0  0
    2.9277    0.2919   -1.6265 O   0  0  0  0  0  0  0  0  0  0  0  0
    5.8784   -0.6396   -0.7075 H   0  0  0  0  0  0  0  0  0  0  0  0
   -0.4395    3.7642    0.0980 S   0  0  0  0  0  0  0  0  0  0  0  0
   -1.6913    3.5630    0.8709 O   0  0  0  0  0  0  0  0  0  0  0  0
   -0.8756    3.8930   -1.4503 O   0  0  0  0  0  0  0  0  0  0  0  0
    0.3290    4.9242    0.4748 O   0  0  0  0  0  0  0  0  0  0  0  0
    0.3348    2.4762    0.0345 O   0  0  0  0  0  0  0  0  0  0  0  0
   -1.2347    4.7782   -1.6081 H   0  0  0  0  0  0  0  0  0  0  0  0
   -0.4026   -1.6082    1.3199 S   0  0  0  0  0  0  0  0  0  0  0  0
   -0.1768   -1.6460   -0.1680 O   0  0  0  0  0  0  0  0  0  0  0  0
    0.7886   -2.3310    1.9834 O   0  0  0  0  0  0  0  0  0  0  0  0
   -1.6645   -2.2441    1.6952 O   0  0  0  0  0  0  0  0  0  0  0  0
   -0.3248   -0.1951    1.8241 O   0  0  0  0  0  0  0  0  0  0  0  0
   -2.4643    1.2749    1.4443 O   0  0  0  0  0  0  0  0  0  0  0  0
   -1.6658    0.7440    1.7279 H   0  0  0  0  0  0  0  0  0  0  0  0
   -2.1635    2.2442    1.1989 H   0  0  0  0  0  0  0  0  0  0  0  0
   -2.8035    0.8051    0.6296 H   0  0  0  0  0  0  0  0  0  0  0  0
    0.4244    0.4628   -1.5415 O   0  0  0  0  0  0  0  0  0  0  0  0
    1.4398    0.3741   -1.6447 H   0  0  0  0  0  0  0  0  0  0  0  0
    0.2472    1.3086   -1.0271 H   0  0  0  0  0  0  0  0  0  0  0  0
    0.1079   -0.3254   -1.0042 H   0  0  0  0  0  0  0  0  0  0  0  0
    1.8306    1.2292    1.7289 O   0  0  0  0  0  0  0  0  0  0  0  0
    1.4380    1.9012    1.1033 H   0  0  0  0  0  0  0  0  0  0  0  0
    1.0699    0.6015    1.9165 H   0  0  0  0  0  0  0  0  0  0  0  0
    2.5875    0.6820    1.2732 H   0  0  0  0  0  0  0  0  0  0  0  0
    2.2441   -3.6731    0.4881 O   0  0  0  0  0  0  0  0  0  0  0  0
    2.8279   -3.0964   -0.0536 H   0  0  0  0  0  0  0  0  0  0  0  0
    1.8262   -4.2972   -0.1123 H   0  0  0  0  0  0  0  0  0  0  0  0
    1.3660   -2.9136    1.3273 H   0  0  0  0  0  0  0  0  0  0  0  0
   -3.5009   -1.3854   -1.0431 S   0  0  0  0  0  0  0  0  0  0  0  0
   -3.9463   -2.1003    0.2886 O   0  0  0  0  0  0  0  0  0  0  0  0
   -4.6105   -1.3883   -1.9414 O   0  0  0  0  0  0  0  0  0  0  0  0
   -2.3694   -2.3203   -1.6273 O   0  0  0  0  0  0  0  0  0  0  0  0
   -2.8461   -0.1167   -0.6848 O   0  0  0  0  0  0  0  0  0  0  0  0
   -3.1727   -2.1855    0.9045 H   0  0  0  0  0  0  0  0  0  0  0  0
   -1.5187   -2.1602   -1.1455 H   0  0  0  0  0  0  0  0  0  0  0  0
  1  2  1  0  0  0  0
  3  1  1  0  0  0  0
  3  6  1  0  0  0  0
  4  1  2  0  0  0  0
  5  1  2  0  0  0  0
  7 10  2  0  0  0  0
  7  8  1  0  0  0  0
  9  7  1  0  0  0  0
 11  7  2  0  0  0  0
 12  9  1  0  0  0  0
 13 16  2  0  0  0  0
 13 17  1  0  0  0  0
 13 15  1  0  0  0  0
 14 13  2  0  0  0  0
 18 19  1  0  0  0  0
 21 18  1  0  0  0  0
 22 24  1  0  0  0  0
 22 25  1  0  0  0  0
 26 28  1  0  0  0  0
 27 26  1  0  0  0  0
 31 30  1  0  0  0  0
 32 30  1  0  0  0  0
 33 15  1  0  0  0  0
 34 38  2  0  0  0  0
 34 35  1  0  0  0  0
 35 39  1  0  0  0  0
 36 34  2  0  0  0  0
 37 40  1  0  0  0  0
 37 34  1  0  0  0  0
M  RAD  6   2   2   8   2  17   2  20   2  23   2  29   2
M  END
$$$$
