1sa_1put.log
 OpenBabel02271919113D
Gaussian kemi/andersx/programs/g09/g09 # opt freq 6-31++g(d,p) geom=connectivity
 25 23  0  0  0  0  0  0  0  0999 V2000
    1.9861   -0.0319   -0.2438 S   0  0  0  0  0  0  0  0  0  0  0  0
    0.7722    0.3093   -1.0029 O   0  0  0  0  0  0  0  0  0  0  0  0
    3.2542   -0.0263   -0.9514 O   0  0  0  0  0  0  0  0  0  0  0  0
    2.0570    1.2307    0.8271 O   0  0  0  0  0  0  0  0  0  0  0  0
    2.9684    1.2904    1.1410 H   0  0  0  0  0  0  0  0  0  0  0  0
    1.7713   -1.2297    0.6178 O   0  0  0  0  0  0  0  0  0  0  0  0
    0.2004   -1.3099    1.0827 H   0  0  0  0  0  0  0  0  0  0  0  0
   -2.5690    1.5622    0.0522 C   0  0  0  0  0  0  0  0  0  0  0  0
   -2.7488    0.4224   -0.9521 C   0  0  0  0  0  0  0  0  0  0  0  0
   -2.6845    2.5153   -0.4808 H   0  0  0  0  0  0  0  0  0  0  0  0
   -1.2796    1.4811    0.7470 N   0  0  0  0  0  0  0  0  0  0  0  0
   -3.3657    1.5149    0.8050 H   0  0  0  0  0  0  0  0  0  0  0  0
   -3.6756    0.6253   -1.4998 H   0  0  0  0  0  0  0  0  0  0  0  0
   -2.8440   -0.9996   -0.3669 C   0  0  0  0  0  0  0  0  0  0  0  0
   -1.9354    0.4581   -1.6868 H   0  0  0  0  0  0  0  0  0  0  0  0
   -3.3562   -1.6328   -1.0993 H   0  0  0  0  0  0  0  0  0  0  0  0
   -3.4819   -0.9997    0.5290 H   0  0  0  0  0  0  0  0  0  0  0  0
   -1.5149   -1.6922   -0.0665 C   0  0  0  0  0  0  0  0  0  0  0  0
   -1.6583   -2.7664    0.0696 H   0  0  0  0  0  0  0  0  0  0  0  0
   -0.8459   -1.1633    1.1541 N   0  0  0  0  0  0  0  0  0  0  0  0
   -0.8097   -1.5352   -0.8853 H   0  0  0  0  0  0  0  0  0  0  0  0
   -1.2112   -1.5832    2.0049 H   0  0  0  0  0  0  0  0  0  0  0  0
   -0.9924   -0.0955    1.1850 H   0  0  0  0  0  0  0  0  0  0  0  0
   -1.1687    2.2315    1.4204 H   0  0  0  0  0  0  0  0  0  0  0  0
   -0.5054    1.5435    0.0809 H   0  0  0  0  0  0  0  0  0  0  0  0
  1  6  1  0  0  0  0
  1  4  1  0  0  0  0
  2  1  2  0  0  0  0
  3  1  2  0  0  0  0
  4  5  1  0  0  0  0
  7 20  1  0  0  0  0
  8 11  1  0  0  0  0
  8 12  1  0  0  0  0
  9 14  1  0  0  0  0
  9  8  1  0  0  0  0
 10  8  1  0  0  0  0
 11 24  1  0  0  0  0
 13  9  1  0  0  0  0
 14 18  1  0  0  0  0
 14 17  1  0  0  0  0
 15  9  1  0  0  0  0
 16 14  1  0  0  0  0
 18 19  1  0  0  0  0
 18 20  1  0  0  0  0
 20 23  1  0  0  0  0
 20 22  1  0  0  0  0
 21 18  1  0  0  0  0
 25 11  1  0  0  0  0
M  RAD  1   6   2
M  END
$$$$
