2sa_3put.log
 OpenBabel02271919113D
Gaussian kemi/andersx/programs/g09/g09 # opt freq wb97xd 6-31++g(d,p)
 68 63  0  0  0  0  0  0  0  0999 V2000
   -2.6690    1.0869    1.2986 S   0  0  0  0  0  0  0  0  0  0  0  0
   -3.0991    0.8692   -0.2584 O   0  0  0  0  0  0  0  0  0  0  0  0
   -3.8592    0.7421    2.0810 O   0  0  0  0  0  0  0  0  0  0  0  0
   -1.5433    0.1196    1.4802 O   0  0  0  0  0  0  0  0  0  0  0  0
   -2.1957    2.4717    1.3936 O   0  0  0  0  0  0  0  0  0  0  0  0
    1.8454   -1.2006   -1.3029 S   0  0  0  0  0  0  0  0  0  0  0  0
    0.7274   -1.2400   -2.2617 O   0  0  0  0  0  0  0  0  0  0  0  0
    2.3572    0.1489   -1.0025 O   0  0  0  0  0  0  0  0  0  0  0  0
    1.4998   -1.9544   -0.0513 O   0  0  0  0  0  0  0  0  0  0  0  0
   -1.3740   -1.0809    0.4086 H   0  0  0  0  0  0  0  0  0  0  0  0
    3.0361   -2.0023   -1.9842 O   0  0  0  0  0  0  0  0  0  0  0  0
   -5.5915   -1.6079   -0.8166 C   0  0  0  0  0  0  0  0  0  0  0  0
   -4.2019   -2.2276   -0.9738 C   0  0  0  0  0  0  0  0  0  0  0  0
   -6.0257   -1.4625   -1.8100 H   0  0  0  0  0  0  0  0  0  0  0  0
   -5.5211   -0.2940   -0.1626 N   0  0  0  0  0  0  0  0  0  0  0  0
   -6.2492   -2.3030   -0.2747 H   0  0  0  0  0  0  0  0  0  0  0  0
   -4.2855   -3.1302   -1.5919 H   0  0  0  0  0  0  0  0  0  0  0  0
   -3.5478   -2.5873    0.3627 C   0  0  0  0  0  0  0  0  0  0  0  0
   -3.5802   -1.5149   -1.5289 H   0  0  0  0  0  0  0  0  0  0  0  0
   -3.5810   -1.7398    1.0570 H   0  0  0  0  0  0  0  0  0  0  0  0
   -4.1147   -3.3986    0.8348 H   0  0  0  0  0  0  0  0  0  0  0  0
   -2.0978   -3.0457    0.2427 C   0  0  0  0  0  0  0  0  0  0  0  0
   -1.7318   -3.3913    1.2118 H   0  0  0  0  0  0  0  0  0  0  0  0
   -1.2003   -1.9426   -0.1773 N   0  0  0  0  0  0  0  0  0  0  0  0
   -1.9877   -3.8646   -0.4741 H   0  0  0  0  0  0  0  0  0  0  0  0
   -1.2852   -1.6908   -1.1631 H   0  0  0  0  0  0  0  0  0  0  0  0
   -0.1821   -2.1603   -0.0608 H   0  0  0  0  0  0  0  0  0  0  0  0
   -0.4495    2.7302   -2.4548 C   0  0  0  0  0  0  0  0  0  0  0  0
    0.9166    3.3832   -2.2135 C   0  0  0  0  0  0  0  0  0  0  0  0
    1.7061    2.6569   -2.4458 H   0  0  0  0  0  0  0  0  0  0  0  0
    1.1475    3.9686   -0.8069 C   0  0  0  0  0  0  0  0  0  0  0  0
    1.0174    4.2002   -2.9377 H   0  0  0  0  0  0  0  0  0  0  0  0
    1.9233    4.7397   -0.8768 H   0  0  0  0  0  0  0  0  0  0  0  0
    0.2381    4.4791   -0.4620 H   0  0  0  0  0  0  0  0  0  0  0  0
    1.6160    2.9857    0.2646 C   0  0  0  0  0  0  0  0  0  0  0  0
    1.9170    3.5251    1.1675 H   0  0  0  0  0  0  0  0  0  0  0  0
    0.5780    2.0072    0.6368 N   0  0  0  0  0  0  0  0  0  0  0  0
    2.4707    2.4094   -0.0982 H   0  0  0  0  0  0  0  0  0  0  0  0
   -0.2339    2.4298    1.1061 H   0  0  0  0  0  0  0  0  0  0  0  0
    0.9655    1.2424    1.2513 H   0  0  0  0  0  0  0  0  0  0  0  0
   -6.3534    0.2548   -0.3474 H   0  0  0  0  0  0  0  0  0  0  0  0
   -4.0476    0.5225   -0.3038 H   0  0  0  0  0  0  0  0  0  0  0  0
   -5.4318   -0.3610    0.8505 H   0  0  0  0  0  0  0  0  0  0  0  0
    0.1724    1.5842   -0.2509 H   0  0  0  0  0  0  0  0  0  0  0  0
    5.5928   -1.3998    0.5671 C   0  0  0  0  0  0  0  0  0  0  0  0
    4.4344   -1.3436    1.5611 C   0  0  0  0  0  0  0  0  0  0  0  0
    6.4371   -0.8107    0.9569 H   0  0  0  0  0  0  0  0  0  0  0  0
    5.1898   -0.9464   -0.7745 N   0  0  0  0  0  0  0  0  0  0  0  0
    5.9358   -2.4345    0.4685 H   0  0  0  0  0  0  0  0  0  0  0  0
    4.7333   -1.9037    2.4564 H   0  0  0  0  0  0  0  0  0  0  0  0
    4.0467    0.0786    1.9860 C   0  0  0  0  0  0  0  0  0  0  0  0
    3.5716   -1.8633    1.1309 H   0  0  0  0  0  0  0  0  0  0  0  0
    3.7602    0.6744    1.1108 H   0  0  0  0  0  0  0  0  0  0  0  0
    4.9194    0.5607    2.4452 H   0  0  0  0  0  0  0  0  0  0  0  0
    2.8830    0.1171    2.9789 C   0  0  0  0  0  0  0  0  0  0  0  0
    3.0526   -0.6438    3.7575 H   0  0  0  0  0  0  0  0  0  0  0  0
    1.5965   -0.0549    2.2989 N   0  0  0  0  0  0  0  0  0  0  0  0
    2.8678    1.0896    3.4847 H   0  0  0  0  0  0  0  0  0  0  0  0
    1.6129   -0.8399    1.6461 H   0  0  0  0  0  0  0  0  0  0  0  0
    0.8389   -0.2155    2.9557 H   0  0  0  0  0  0  0  0  0  0  0  0
    5.9941   -0.8927   -1.3917 H   0  0  0  0  0  0  0  0  0  0  0  0
    4.7728   -0.0181   -0.7386 H   0  0  0  0  0  0  0  0  0  0  0  0
   -1.2359    3.3887   -2.0678 H   0  0  0  0  0  0  0  0  0  0  0  0
   -0.5782    1.4354   -1.7870 N   0  0  0  0  0  0  0  0  0  0  0  0
   -0.6084    2.6450   -3.5391 H   0  0  0  0  0  0  0  0  0  0  0  0
   -1.5524    1.1811   -1.6491 H   0  0  0  0  0  0  0  0  0  0  0  0
   -0.0983    0.6881   -2.2854 H   0  0  0  0  0  0  0  0  0  0  0  0
    3.8998   -1.7121   -1.5318 H   0  0  0  0  0  0  0  0  0  0  0  0
  1  5  2  0  0  0  0
  1  4  2  0  0  0  0
  1  3  1  0  0  0  0
  2  1  1  0  0  0  0
  6  8  2  0  0  0  0
  6  9  1  0  0  0  0
  7  6  2  0  0  0  0
 11 68  1  0  0  0  0
 11  6  1  0  0  0  0
 12 16  1  0  0  0  0
 12 15  1  0  0  0  0
 13 12  1  0  0  0  0
 13 18  1  0  0  0  0
 14 12  1  0  0  0  0
 15 43  1  0  0  0  0
 17 13  1  0  0  0  0
 18 21  1  0  0  0  0
 18 20  1  0  0  0  0
 19 13  1  0  0  0  0
 22 18  1  0  0  0  0
 22 23  1  0  0  0  0
 24 27  1  0  0  0  0
 24 22  1  0  0  0  0
 24 10  1  0  0  0  0
 25 22  1  0  0  0  0
 26 24  1  0  0  0  0
 28 29  1  0  0  0  0
 28 63  1  0  0  0  0
 28 64  1  0  0  0  0
 29 31  1  0  0  0  0
 30 29  1  0  0  0  0
 31 34  1  0  0  0  0
 31 35  1  0  0  0  0
 32 29  1  0  0  0  0
 33 31  1  0  0  0  0
 35 37  1  0  0  0  0
 35 36  1  0  0  0  0
 37 39  1  0  0  0  0
 37 40  1  0  0  0  0
 38 35  1  0  0  0  0
 41 15  1  0  0  0  0
 42  2  1  0  0  0  0
 44 37  1  0  0  0  0
 45 47  1  0  0  0  0
 45 46  1  0  0  0  0
 46 51  1  0  0  0  0
 46 50  1  0  0  0  0
 48 62  1  0  0  0  0
 48 45  1  0  0  0  0
 49 45  1  0  0  0  0
 51 54  1  0  0  0  0
 51 55  1  0  0  0  0
 52 46  1  0  0  0  0
 53 51  1  0  0  0  0
 55 58  1  0  0  0  0
 55 56  1  0  0  0  0
 57 60  1  0  0  0  0
 57 55  1  0  0  0  0
 59 57  1  0  0  0  0
 61 48  1  0  0  0  0
 64 66  1  0  0  0  0
 65 28  1  0  0  0  0
 67 64  1  0  0  0  0
M  RAD  2   3   2   9   2
M  END
$$$$
