3put.log
 OpenBabel02271919113D
Gaussian kemi/andersx/programs/g09/g09 # opt freq wb97xd 6-31++g(d,p)
 54 51  0  0  0  0  0  0  0  0999 V2000
   -1.3143   -2.1537   -1.6748 C   0  0  0  0  0  0  0  0  0  0  0  0
   -2.5366   -2.0685   -0.7503 C   0  0  0  0  0  0  0  0  0  0  0  0
   -0.8820   -3.1671   -1.6055 H   0  0  0  0  0  0  0  0  0  0  0  0
   -0.3396   -1.1038   -1.3619 N   0  0  0  0  0  0  0  0  0  0  0  0
   -1.6402   -2.0271   -2.7157 H   0  0  0  0  0  0  0  0  0  0  0  0
   -3.4233   -2.4253   -1.2875 H   0  0  0  0  0  0  0  0  0  0  0  0
   -2.4358   -2.8731    0.5569 C   0  0  0  0  0  0  0  0  0  0  0  0
   -2.7182   -1.0125   -0.5201 H   0  0  0  0  0  0  0  0  0  0  0  0
   -2.5410   -3.9429    0.3341 H   0  0  0  0  0  0  0  0  0  0  0  0
   -3.2925   -2.6052    1.1894 H   0  0  0  0  0  0  0  0  0  0  0  0
   -1.1496   -2.6972    1.3672 C   0  0  0  0  0  0  0  0  0  0  0  0
   -1.2598   -3.2662    2.3047 H   0  0  0  0  0  0  0  0  0  0  0  0
   -0.8209   -1.2952    1.5801 N   0  0  0  0  0  0  0  0  0  0  0  0
   -0.3126   -3.1559    0.8217 H   0  0  0  0  0  0  0  0  0  0  0  0
   -1.6138   -0.7358    1.8905 H   0  0  0  0  0  0  0  0  0  0  0  0
   -0.0412   -1.1753    2.2232 H   0  0  0  0  0  0  0  0  0  0  0  0
   -0.2979   -0.9893   -0.3439 H   0  0  0  0  0  0  0  0  0  0  0  0
    0.5952   -1.3533   -1.6827 H   0  0  0  0  0  0  0  0  0  0  0  0
   -1.4749    2.6792   -1.7865 C   0  0  0  0  0  0  0  0  0  0  0  0
   -0.3200    2.9347   -0.8149 C   0  0  0  0  0  0  0  0  0  0  0  0
   -2.2315    3.4652   -1.6587 H   0  0  0  0  0  0  0  0  0  0  0  0
   -2.1065    1.3812   -1.5692 N   0  0  0  0  0  0  0  0  0  0  0  0
   -1.0765    2.7868   -2.8091 H   0  0  0  0  0  0  0  0  0  0  0  0
    0.3778    2.0867   -0.8734 H   0  0  0  0  0  0  0  0  0  0  0  0
   -0.6672    3.2030    0.6587 C   0  0  0  0  0  0  0  0  0  0  0  0
    0.2277    3.8063   -1.1949 H   0  0  0  0  0  0  0  0  0  0  0  0
    0.2167    3.6672    1.1182 H   0  0  0  0  0  0  0  0  0  0  0  0
   -1.4706    3.9512    0.7197 H   0  0  0  0  0  0  0  0  0  0  0  0
   -1.0392    1.9817    1.5183 C   0  0  0  0  0  0  0  0  0  0  0  0
   -0.3523    1.1630    1.2690 H   0  0  0  0  0  0  0  0  0  0  0  0
   -2.3919    1.4490    1.4048 N   0  0  0  0  0  0  0  0  0  0  0  0
   -0.8672    2.2329    2.5736 H   0  0  0  0  0  0  0  0  0  0  0  0
   -2.5863    1.2877    0.4113 H   0  0  0  0  0  0  0  0  0  0  0  0
   -3.0657    2.1300    1.7419 H   0  0  0  0  0  0  0  0  0  0  0  0
   -1.4185    0.6214   -1.6559 H   0  0  0  0  0  0  0  0  0  0  0  0
   -2.8340    1.2176   -2.2571 H   0  0  0  0  0  0  0  0  0  0  0  0
    2.9194   -0.0023    1.9983 C   0  0  0  0  0  0  0  0  0  0  0  0
    2.4207   -0.1274    0.5614 C   0  0  0  0  0  0  0  0  0  0  0  0
    3.4738    0.9452    2.1068 H   0  0  0  0  0  0  0  0  0  0  0  0
    1.8187   -0.1227    2.9580 N   0  0  0  0  0  0  0  0  0  0  0  0
    3.6325   -0.8093    2.2044 H   0  0  0  0  0  0  0  0  0  0  0  0
    1.6189    0.6031    0.3915 H   0  0  0  0  0  0  0  0  0  0  0  0
    3.5353    0.1120   -0.4565 C   0  0  0  0  0  0  0  0  0  0  0  0
    1.9692   -1.1137    0.4181 H   0  0  0  0  0  0  0  0  0  0  0  0
    4.3502   -0.6090   -0.2918 H   0  0  0  0  0  0  0  0  0  0  0  0
    3.9725    1.1051   -0.2893 H   0  0  0  0  0  0  0  0  0  0  0  0
    3.0920    0.0348   -1.9163 C   0  0  0  0  0  0  0  0  0  0  0  0
    2.2274    0.6926   -2.0674 H   0  0  0  0  0  0  0  0  0  0  0  0
    2.6820   -1.3235   -2.2837 N   0  0  0  0  0  0  0  0  0  0  0  0
    3.9061    0.4165   -2.5520 H   0  0  0  0  0  0  0  0  0  0  0  0
    3.4397   -1.9805   -2.1225 H   0  0  0  0  0  0  0  0  0  0  0  0
    2.4536   -1.3720   -3.2714 H   0  0  0  0  0  0  0  0  0  0  0  0
    1.2182    0.6959    2.9068 H   0  0  0  0  0  0  0  0  0  0  0  0
    2.1734   -0.1684    3.9072 H   0  0  0  0  0  0  0  0  0  0  0  0
  1  3  1  0  0  0  0
  1  4  1  0  0  0  0
  1  2  1  0  0  0  0
  2  8  1  0  0  0  0
  2  7  1  0  0  0  0
  4 17  1  0  0  0  0
  5  1  1  0  0  0  0
  6  2  1  0  0  0  0
  7 10  1  0  0  0  0
  7 11  1  0  0  0  0
  9  7  1  0  0  0  0
 11 13  1  0  0  0  0
 11 12  1  0  0  0  0
 13 15  1  0  0  0  0
 13 16  1  0  0  0  0
 14 11  1  0  0  0  0
 18  4  1  0  0  0  0
 19 21  1  0  0  0  0
 19 22  1  0  0  0  0
 19 20  1  0  0  0  0
 20 25  1  0  0  0  0
 23 19  1  0  0  0  0
 24 20  1  0  0  0  0
 25 28  1  0  0  0  0
 25 27  1  0  0  0  0
 25 29  1  0  0  0  0
 26 20  1  0  0  0  0
 29 32  1  0  0  0  0
 30 29  1  0  0  0  0
 31 29  1  0  0  0  0
 31 34  1  0  0  0  0
 33 31  1  0  0  0  0
 35 22  1  0  0  0  0
 36 22  1  0  0  0  0
 37 39  1  0  0  0  0
 37 41  1  0  0  0  0
 37 40  1  0  0  0  0
 38 37  1  0  0  0  0
 40 54  1  0  0  0  0
 42 38  1  0  0  0  0
 43 45  1  0  0  0  0
 43 46  1  0  0  0  0
 43 38  1  0  0  0  0
 44 38  1  0  0  0  0
 47 43  1  0  0  0  0
 48 47  1  0  0  0  0
 49 51  1  0  0  0  0
 49 47  1  0  0  0  0
 50 47  1  0  0  0  0
 52 49  1  0  0  0  0
 53 40  1  0  0  0  0
M  END
$$$$
