3sa_3put.log
 OpenBabel02271919113D
Gaussian users/kemi/kmacke/programs/G09D/g09/g09 # opt freq wb97xd 6-31++g(d,p)
 75 69  0  0  0  0  0  0  0  0999 V2000
   -2.2355   -1.3364    0.8323 S   0  0  0  0  0  0  0  0  0  0  0  0
   -2.6580   -0.0844    1.4982 O   0  0  0  0  0  0  0  0  0  0  0  0
   -2.5411   -1.3445   -0.6174 O   0  0  0  0  0  0  0  0  0  0  0  0
   -0.8117   -1.6767    1.0893 O   0  0  0  0  0  0  0  0  0  0  0  0
   -3.0523   -2.5201    1.5025 O   0  0  0  0  0  0  0  0  0  0  0  0
    4.1398   -0.2270    0.3663 S   0  0  0  0  0  0  0  0  0  0  0  0
    2.7035   -0.2705   -0.0873 O   0  0  0  0  0  0  0  0  0  0  0  0
    4.6591    1.1424    0.2182 O   0  0  0  0  0  0  0  0  0  0  0  0
    4.2783   -0.8209    1.7000 O   0  0  0  0  0  0  0  0  0  0  0  0
    4.9475   -1.1217   -0.6647 O   0  0  0  0  0  0  0  0  0  0  0  0
   -0.3403    2.1946   -1.9005 S   0  0  0  0  0  0  0  0  0  0  0  0
   -0.1854    0.9099   -2.6543 O   0  0  0  0  0  0  0  0  0  0  0  0
   -0.4839    1.8676   -0.4182 O   0  0  0  0  0  0  0  0  0  0  0  0
    0.8542    3.0766   -2.0980 O   0  0  0  0  0  0  0  0  0  0  0  0
    0.0801   -0.1702    1.7270 H   0  0  0  0  0  0  0  0  0  0  0  0
   -1.5934    2.8885   -2.3298 O   0  0  0  0  0  0  0  0  0  0  0  0
    3.4476    3.7531   -0.5173 H   0  0  0  0  0  0  0  0  0  0  0  0
    1.8311    3.6938    0.8096 C   0  0  0  0  0  0  0  0  0  0  0  0
    2.3655    3.5127    2.2234 C   0  0  0  0  0  0  0  0  0  0  0  0
    0.8436    3.2463    0.6771 H   0  0  0  0  0  0  0  0  0  0  0  0
    2.6904    3.1199   -0.2676 N   0  0  0  0  0  0  0  0  0  0  0  0
    1.7183    4.7559    0.5818 H   0  0  0  0  0  0  0  0  0  0  0  0
    3.3731    3.9394    2.2970 H   0  0  0  0  0  0  0  0  0  0  0  0
    2.4081    2.0855    2.7867 C   0  0  0  0  0  0  0  0  0  0  0  0
    1.7263    4.1274    2.8695 H   0  0  0  0  0  0  0  0  0  0  0  0
    3.1643    1.4824    2.2760 H   0  0  0  0  0  0  0  0  0  0  0  0
    2.7689    2.1642    3.8173 H   0  0  0  0  0  0  0  0  0  0  0  0
    1.0836    1.3162    2.8418 C   0  0  0  0  0  0  0  0  0  0  0  0
    0.2430    1.9706    3.0911 H   0  0  0  0  0  0  0  0  0  0  0  0
    0.7454    0.6057    1.5824 N   0  0  0  0  0  0  0  0  0  0  0  0
    1.1533    0.5520    3.6182 H   0  0  0  0  0  0  0  0  0  0  0  0
    1.5840    0.1854    1.1290 H   0  0  0  0  0  0  0  0  0  0  0  0
    0.3074    1.1956    0.8275 H   0  0  0  0  0  0  0  0  0  0  0  0
    2.0442    2.9920   -1.1218 H   0  0  0  0  0  0  0  0  0  0  0  0
    3.1639    2.2291   -0.0301 H   0  0  0  0  0  0  0  0  0  0  0  0
    0.3383   -2.4224   -2.3763 C   0  0  0  0  0  0  0  0  0  0  0  0
    0.8616   -3.7462   -1.8291 C   0  0  0  0  0  0  0  0  0  0  0  0
    0.8466   -2.1534   -3.3062 H   0  0  0  0  0  0  0  0  0  0  0  0
    0.5317   -1.3022   -1.4310 N   0  0  0  0  0  0  0  0  0  0  0  0
   -0.7339   -2.4810   -2.5736 H   0  0  0  0  0  0  0  0  0  0  0  0
    0.2928   -4.0089   -0.9280 H   0  0  0  0  0  0  0  0  0  0  0  0
    2.3735   -3.7509   -1.5249 C   0  0  0  0  0  0  0  0  0  0  0  0
    0.6238   -4.5122   -2.5734 H   0  0  0  0  0  0  0  0  0  0  0  0
    2.8265   -4.6707   -1.9138 H   0  0  0  0  0  0  0  0  0  0  0  0
    2.8735   -2.9254   -2.0489 H   0  0  0  0  0  0  0  0  0  0  0  0
    2.6875   -3.6466   -0.0335 C   0  0  0  0  0  0  0  0  0  0  0  0
    2.2296   -2.7491    0.3921 H   0  0  0  0  0  0  0  0  0  0  0  0
    4.1380   -3.5344    0.1819 N   0  0  0  0  0  0  0  0  0  0  0  0
    2.2555   -4.5095    0.4921 H   0  0  0  0  0  0  0  0  0  0  0  0
    4.7251   -2.0912   -0.4479 H   0  0  0  0  0  0  0  0  0  0  0  0
    4.6151   -4.3867   -0.0973 H   0  0  0  0  0  0  0  0  0  0  0  0
    0.0117   -1.4729   -0.5558 H   0  0  0  0  0  0  0  0  0  0  0  0
    4.3386   -3.3720    1.1661 H   0  0  0  0  0  0  0  0  0  0  0  0
    1.5160   -1.1385   -1.1740 H   0  0  0  0  0  0  0  0  0  0  0  0
   -4.7257    1.7709   -0.9151 C   0  0  0  0  0  0  0  0  0  0  0  0
   -5.5037    1.0138    0.1576 C   0  0  0  0  0  0  0  0  0  0  0  0
   -5.1514    1.6048   -1.9087 H   0  0  0  0  0  0  0  0  0  0  0  0
   -3.3000    1.3773   -0.9677 N   0  0  0  0  0  0  0  0  0  0  0  0
   -4.7467    2.8456   -0.7209 H   0  0  0  0  0  0  0  0  0  0  0  0
   -4.9374    1.0822    1.0935 H   0  0  0  0  0  0  0  0  0  0  0  0
   -5.7890   -0.4498   -0.1983 C   0  0  0  0  0  0  0  0  0  0  0  0
   -6.4538    1.5375    0.3178 H   0  0  0  0  0  0  0  0  0  0  0  0
   -4.8707   -0.9616   -0.5047 H   0  0  0  0  0  0  0  0  0  0  0  0
   -6.4712   -0.4767   -1.0569 H   0  0  0  0  0  0  0  0  0  0  0  0
   -6.4302   -1.2389    0.9415 C   0  0  0  0  0  0  0  0  0  0  0  0
   -7.3270   -0.7114    1.2994 H   0  0  0  0  0  0  0  0  0  0  0  0
   -5.4759   -1.4912    2.0351 N   0  0  0  0  0  0  0  0  0  0  0  0
   -6.7534   -2.2133    0.5640 H   0  0  0  0  0  0  0  0  0  0  0  0
   -4.0062   -2.2043    1.6589 H   0  0  0  0  0  0  0  0  0  0  0  0
   -5.1333   -0.6193    2.4323 H   0  0  0  0  0  0  0  0  0  0  0  0
   -3.1490    0.3868   -1.2129 H   0  0  0  0  0  0  0  0  0  0  0  0
   -2.8447    1.4504   -0.0499 H   0  0  0  0  0  0  0  0  0  0  0  0
   -5.9273   -2.0004    2.7890 H   0  0  0  0  0  0  0  0  0  0  0  0
   -2.7244    1.9938   -1.6216 H   0  0  0  0  0  0  0  0  0  0  0  0
    0.1877   -0.3900   -1.8637 H   0  0  0  0  0  0  0  0  0  0  0  0
  1  4  2  0  0  0  0
  1  2  1  0  0  0  0
  1  5  1  0  0  0  0
  3  1  2  0  0  0  0
  5 69  1  0  0  0  0
  6  9  1  0  0  0  0
  7  6  2  0  0  0  0
  8  6  2  0  0  0  0
 10 50  1  0  0  0  0
 10  6  1  0  0  0  0
 11 13  1  0  0  0  0
 12 11  2  0  0  0  0
 14 11  1  0  0  0  0
 16 11  2  0  0  0  0
 17 21  1  0  0  0  0
 18 19  1  0  0  0  0
 19 23  1  0  0  0  0
 19 24  1  0  0  0  0
 19 25  1  0  0  0  0
 20 18  1  0  0  0  0
 21 35  1  0  0  0  0
 21 18  1  0  0  0  0
 22 18  1  0  0  0  0
 24 28  1  0  0  0  0
 24 27  1  0  0  0  0
 26 24  1  0  0  0  0
 28 29  1  0  0  0  0
 28 31  1  0  0  0  0
 30 15  1  0  0  0  0
 30 28  1  0  0  0  0
 32 30  1  0  0  0  0
 33 30  1  0  0  0  0
 34 21  1  0  0  0  0
 36 37  1  0  0  0  0
 36 39  1  0  0  0  0
 37 42  1  0  0  0  0
 37 41  1  0  0  0  0
 38 36  1  0  0  0  0
 39 54  1  0  0  0  0
 39 52  1  0  0  0  0
 40 36  1  0  0  0  0
 42 46  1  0  0  0  0
 43 37  1  0  0  0  0
 44 42  1  0  0  0  0
 45 42  1  0  0  0  0
 46 48  1  0  0  0  0
 46 47  1  0  0  0  0
 46 49  1  0  0  0  0
 48 53  1  0  0  0  0
 51 48  1  0  0  0  0
 55 59  1  0  0  0  0
 55 56  1  0  0  0  0
 56 62  1  0  0  0  0
 56 60  1  0  0  0  0
 57 55  1  0  0  0  0
 58 55  1  0  0  0  0
 58 72  1  0  0  0  0
 61 56  1  0  0  0  0
 61 65  1  0  0  0  0
 63 61  1  0  0  0  0
 64 61  1  0  0  0  0
 65 66  1  0  0  0  0
 65 67  1  0  0  0  0
 67 70  1  0  0  0  0
 67 73  1  0  0  0  0
 68 65  1  0  0  0  0
 71 58  1  0  0  0  0
 74 58  1  0  0  0  0
 75 39  1  0  0  0  0
M  RAD  4   2   2   9   2  13   2  14   2
M  END
$$$$
