4sa.log
 OpenBabel02271919113D
Gaussian opt/gaussian/g09/g09 # opt freq wb97xd 6-31++g(d,p)
 28 24  0  0  0  0  0  0  0  0999 V2000
    1.8829    0.8167   -0.7866 S   0  0  0  0  0  0  0  0  0  0  0  0
    3.1703    1.1993   -1.3319 O   0  0  0  0  0  0  0  0  0  0  0  0
    0.6824    1.2225   -1.4923 O   0  0  0  0  0  0  0  0  0  0  0  0
    1.7873   -0.7409   -0.6400 O   0  0  0  0  0  0  0  0  0  0  0  0
    2.6565   -1.1163   -0.3318 H   0  0  0  0  0  0  0  0  0  0  0  0
    1.8629    1.3647    0.6844 O   0  0  0  0  0  0  0  0  0  0  0  0
    0.9483    1.3010    1.0668 H   0  0  0  0  0  0  0  0  0  0  0  0
    5.4849   -0.8953    0.2077 S   0  0  0  0  0  0  0  0  0  0  0  0
    6.7128   -1.6324    0.2553 O   0  0  0  0  0  0  0  0  0  0  0  0
    4.2042   -1.5688    0.0783 O   0  0  0  0  0  0  0  0  0  0  0  0
    5.6302    0.1902   -0.9226 O   0  0  0  0  0  0  0  0  0  0  0  0
    5.3188   -0.0190    1.5393 O   0  0  0  0  0  0  0  0  0  0  0  0
    6.1834    0.3186    1.8181 H   0  0  0  0  0  0  0  0  0  0  0  0
    4.7563    0.6203   -1.1073 H   0  0  0  0  0  0  0  0  0  0  0  0
   -1.8832    0.8176    0.7861 S   0  0  0  0  0  0  0  0  0  0  0  0
   -3.1706    1.2007    1.3311 O   0  0  0  0  0  0  0  0  0  0  0  0
   -0.6827    1.2246    1.4910 O   0  0  0  0  0  0  0  0  0  0  0  0
   -1.8637    1.3635   -0.6857 O   0  0  0  0  0  0  0  0  0  0  0  0
   -1.7873   -0.7402    0.6417 O   0  0  0  0  0  0  0  0  0  0  0  0
   -0.9492    1.2995   -1.0681 H   0  0  0  0  0  0  0  0  0  0  0  0
   -2.6562   -1.1161    0.3333 H   0  0  0  0  0  0  0  0  0  0  0  0
   -5.4845   -0.8957   -0.2072 S   0  0  0  0  0  0  0  0  0  0  0  0
   -5.6302    0.1905    0.9225 O   0  0  0  0  0  0  0  0  0  0  0  0
   -5.3184   -0.0201   -1.5393 O   0  0  0  0  0  0  0  0  0  0  0  0
   -4.2037   -1.5688   -0.0774 O   0  0  0  0  0  0  0  0  0  0  0  0
   -6.7122   -1.6330   -0.2545 O   0  0  0  0  0  0  0  0  0  0  0  0
   -6.1831    0.3174   -1.8182 H   0  0  0  0  0  0  0  0  0  0  0  0
   -4.7564    0.6209    1.1070 H   0  0  0  0  0  0  0  0  0  0  0  0
  1  4  1  0  0  0  0
  1  6  1  0  0  0  0
  2  1  2  0  0  0  0
  3  1  2  0  0  0  0
  4  5  1  0  0  0  0
  6  7  1  0  0  0  0
  8  9  2  0  0  0  0
  8 12  1  0  0  0  0
 10  8  2  0  0  0  0
 11  8  1  0  0  0  0
 12 13  1  0  0  0  0
 14 11  1  0  0  0  0
 15 16  2  0  0  0  0
 15 17  2  0  0  0  0
 18 15  1  0  0  0  0
 19 15  1  0  0  0  0
 20 18  1  0  0  0  0
 21 19  1  0  0  0  0
 22 25  2  0  0  0  0
 22 23  1  0  0  0  0
 23 28  1  0  0  0  0
 24 22  1  0  0  0  0
 26 22  2  0  0  0  0
 27 24  1  0  0  0  0
M  END
$$$$
