4sa_2put.log
 OpenBabel02271919113D
Gaussian kemi/andersx/programs/g09/g09 # opt freq wb97xd/6-31++g(d,p) geom=conne
 64 58  0  0  0  0  0  0  0  0999 V2000
    3.9865    0.3840   -0.5764 S   0  0  0  0  0  0  0  0  0  0  0  0
    2.7483    0.3300    0.2942 O   0  0  0  0  0  0  0  0  0  0  0  0
    4.9944   -0.5736   -0.1544 O   0  0  0  0  0  0  0  0  0  0  0  0
    3.4986   -0.1492   -2.0118 O   0  0  0  0  0  0  0  0  0  0  0  0
    2.7206    0.3704   -2.3025 H   0  0  0  0  0  0  0  0  0  0  0  0
    4.4033    1.7864   -0.7451 O   0  0  0  0  0  0  0  0  0  0  0  0
    0.0152    0.5321   -1.8301 S   0  0  0  0  0  0  0  0  0  0  0  0
    0.4101   -0.8806   -1.9761 O   0  0  0  0  0  0  0  0  0  0  0  0
    1.0636    1.4674   -2.2937 O   0  0  0  0  0  0  0  0  0  0  0  0
   -1.2234    0.8069   -2.7635 O   0  0  0  0  0  0  0  0  0  0  0  0
   -1.9477    0.1541   -2.5085 H   0  0  0  0  0  0  0  0  0  0  0  0
   -0.4373    0.8532   -0.4444 O   0  0  0  0  0  0  0  0  0  0  0  0
    0.2192    0.5111    1.0006 H   0  0  0  0  0  0  0  0  0  0  0  0
   -0.6849   -0.5341    2.6415 S   0  0  0  0  0  0  0  0  0  0  0  0
   -2.0079   -0.0169    2.1986 O   0  0  0  0  0  0  0  0  0  0  0  0
   -0.4237   -0.4794    4.0622 O   0  0  0  0  0  0  0  0  0  0  0  0
   -0.3926   -1.8561    2.0032 O   0  0  0  0  0  0  0  0  0  0  0  0
    1.4257   -2.0471    1.9262 H   0  0  0  0  0  0  0  0  0  0  0  0
    0.3954    0.4718    1.9815 O   0  0  0  0  0  0  0  0  0  0  0  0
   -0.4542   -2.0139   -1.0983 H   0  0  0  0  0  0  0  0  0  0  0  0
   -0.4216   -4.0833   -0.7227 C   0  0  0  0  0  0  0  0  0  0  0  0
    0.8284   -4.1924    0.1460 C   0  0  0  0  0  0  0  0  0  0  0  0
   -0.1986   -4.2509   -1.7793 H   0  0  0  0  0  0  0  0  0  0  0  0
   -1.0266   -2.7332   -0.6032 N   0  0  0  0  0  0  0  0  0  0  0  0
   -1.1690   -4.8132   -0.4061 H   0  0  0  0  0  0  0  0  0  0  0  0
    0.5364   -3.9682    1.1788 H   0  0  0  0  0  0  0  0  0  0  0  0
    2.0020   -3.3009   -0.2990 C   0  0  0  0  0  0  0  0  0  0  0  0
    1.1476   -5.2400    0.1427 H   0  0  0  0  0  0  0  0  0  0  0  0
    1.6647   -2.3447   -0.7150 H   0  0  0  0  0  0  0  0  0  0  0  0
    2.5504   -3.7892   -1.1097 H   0  0  0  0  0  0  0  0  0  0  0  0
    2.9804   -3.0051    0.8322 C   0  0  0  0  0  0  0  0  0  0  0  0
    3.1567   -3.8874    1.4538 H   0  0  0  0  0  0  0  0  0  0  0  0
    2.4322   -1.9198    1.7035 N   0  0  0  0  0  0  0  0  0  0  0  0
    3.9324   -2.6352    0.4459 H   0  0  0  0  0  0  0  0  0  0  0  0
    2.5184   -0.9949    1.1933 H   0  0  0  0  0  0  0  0  0  0  0  0
    2.9481   -1.8315    2.5769 H   0  0  0  0  0  0  0  0  0  0  0  0
   -1.0856   -2.4334    0.3847 H   0  0  0  0  0  0  0  0  0  0  0  0
   -1.9552   -2.6355   -1.0311 H   0  0  0  0  0  0  0  0  0  0  0  0
   -3.9844   -0.6754   -0.9530 S   0  0  0  0  0  0  0  0  0  0  0  0
   -3.9905    0.7849   -0.6820 O   0  0  0  0  0  0  0  0  0  0  0  0
   -3.6019   -1.3966    0.4484 O   0  0  0  0  0  0  0  0  0  0  0  0
   -2.8452   -1.0337   -1.8602 O   0  0  0  0  0  0  0  0  0  0  0  0
   -5.2508   -1.2502   -1.3382 O   0  0  0  0  0  0  0  0  0  0  0  0
    1.4716    4.0547    0.6756 C   0  0  0  0  0  0  0  0  0  0  0  0
    0.0522    3.8259    1.1859 C   0  0  0  0  0  0  0  0  0  0  0  0
    1.5302    4.9464    0.0454 H   0  0  0  0  0  0  0  0  0  0  0  0
    1.9766    2.9091   -0.1138 N   0  0  0  0  0  0  0  0  0  0  0  0
    2.1587    4.1858    1.5138 H   0  0  0  0  0  0  0  0  0  0  0  0
   -0.1390    4.5864    1.9522 H   0  0  0  0  0  0  0  0  0  0  0  0
   -1.0278    3.9256    0.1029 C   0  0  0  0  0  0  0  0  0  0  0  0
    0.0211    2.8550    1.6949 H   0  0  0  0  0  0  0  0  0  0  0  0
   -0.8640    3.1912   -0.6906 H   0  0  0  0  0  0  0  0  0  0  0  0
   -0.9883    4.9193   -0.3575 H   0  0  0  0  0  0  0  0  0  0  0  0
   -2.4370    3.7435    0.6547 C   0  0  0  0  0  0  0  0  0  0  0  0
   -2.5791    4.3495    1.5542 H   0  0  0  0  0  0  0  0  0  0  0  0
   -2.7414    2.3294    1.0080 N   0  0  0  0  0  0  0  0  0  0  0  0
   -3.1838    4.0441   -0.0822 H   0  0  0  0  0  0  0  0  0  0  0  0
   -3.0174    1.7305    0.1796 H   0  0  0  0  0  0  0  0  0  0  0  0
   -1.9967    1.8061    1.4871 H   0  0  0  0  0  0  0  0  0  0  0  0
    2.9704    2.9810   -0.3946 H   0  0  0  0  0  0  0  0  0  0  0  0
    1.4536    2.6920   -0.9816 H   0  0  0  0  0  0  0  0  0  0  0  0
   -3.0216   -0.8412    1.0199 H   0  0  0  0  0  0  0  0  0  0  0  0
    1.9801    2.0097    0.4031 H   0  0  0  0  0  0  0  0  0  0  0  0
   -3.5505    2.2692    1.6264 H   0  0  0  0  0  0  0  0  0  0  0  0
  1  3  2  0  0  0  0
  1  2  1  0  0  0  0
  4  1  1  0  0  0  0
  5  4  1  0  0  0  0
  6  1  2  0  0  0  0
  7 12  1  0  0  0  0
  8  7  2  0  0  0  0
  9  7  2  0  0  0  0
 10 11  1  0  0  0  0
 10  7  1  0  0  0  0
 13 19  1  0  0  0  0
 14 16  1  0  0  0  0
 15 14  2  0  0  0  0
 17 14  2  0  0  0  0
 19 14  1  0  0  0  0
 20 24  1  0  0  0  0
 21 24  1  0  0  0  0
 21 25  1  0  0  0  0
 21 22  1  0  0  0  0
 22 26  1  0  0  0  0
 23 21  1  0  0  0  0
 24 37  1  0  0  0  0
 27 22  1  0  0  0  0
 27 31  1  0  0  0  0
 28 22  1  0  0  0  0
 29 27  1  0  0  0  0
 30 27  1  0  0  0  0
 31 32  1  0  0  0  0
 31 33  1  0  0  0  0
 33 18  1  0  0  0  0
 33 36  1  0  0  0  0
 34 31  1  0  0  0  0
 35 33  1  0  0  0  0
 38 24  1  0  0  0  0
 39 40  1  0  0  0  0
 39 41  1  0  0  0  0
 41 62  1  0  0  0  0
 42 39  2  0  0  0  0
 43 39  2  0  0  0  0
 44 45  1  0  0  0  0
 44 48  1  0  0  0  0
 45 51  1  0  0  0  0
 45 49  1  0  0  0  0
 46 44  1  0  0  0  0
 47 63  1  0  0  0  0
 47 44  1  0  0  0  0
 50 54  1  0  0  0  0
 50 45  1  0  0  0  0
 52 50  1  0  0  0  0
 53 50  1  0  0  0  0
 54 56  1  0  0  0  0
 54 55  1  0  0  0  0
 56 59  1  0  0  0  0
 56 64  1  0  0  0  0
 57 54  1  0  0  0  0
 58 56  1  0  0  0  0
 60 47  1  0  0  0  0
 61 47  1  0  0  0  0
M  RAD  4   2   2  12   2  16   2  40   2
M  END
$$$$
