47
2sa1ma2tma-7
S       -0.12487600       2.34227400      -0.49601100
O        1.11022900       2.13918700       0.29317000
O       -1.32585500       1.93432200       0.31641900
O       -0.26362000       3.62142200      -1.16500300
O       -0.07585500       1.25492000      -1.69187300
H       -0.11550400       0.33970100      -1.29505500
S        0.09596500      -1.90465300       0.47347300
O       -0.40785300      -1.17259300      -0.78319100
O       -1.03798700      -1.96725900       1.43344400
O        0.69011600      -3.18820300       0.09301900
O        1.17944100      -0.99433400       1.07978100
C        0.34466200       1.69572100       3.40840200
N       -0.27422100       0.71954100       2.49394900
H        0.43767600       0.12421200       1.98609300
H       -0.89636200       0.05401100       2.94998800
H        0.97535900       2.34836000       2.80454500
H       -0.42879300       2.28577700       3.90142600
H        0.94443400       1.17300600       4.15442200
H       -0.78978700       1.20674000       1.71705500
N        3.10622800      -0.52109000      -0.60465200
C        3.85496400      -1.77164000      -0.33312600
C        2.60922900      -0.48168600      -2.00191300
C        3.86912400       0.70008000      -0.25831400
H        2.05055400       0.44233300      -2.15120300
H        3.46250900      -0.53186900      -2.68339900
H        1.94322000      -1.33215800      -2.15417300
H        4.17322200      -1.76894400       0.70961300
H        3.18007100      -2.61495600      -0.49222900
H        4.72302200      -1.82818500      -0.99466400
H        4.21061800       0.61635000       0.77439600
H        4.72812000       0.79265700      -0.92799700
H        3.19722300       1.55594600      -0.34682200
H        2.25730100      -0.57754800       0.04953100
N       -3.00511400      -0.70775600      -0.60532100
C       -3.43322400      -2.09428400      -0.90762900
C       -3.56612700      -0.23091300       0.68012500
C       -3.29207600       0.23279400      -1.71548800
H       -3.19635300       0.77958400       0.85235600
H       -4.65741800      -0.23532300       0.61445300
H       -3.21899900      -0.90498600       1.46327200
H       -2.94261000      -2.41657100      -1.82612900
H       -3.10955900      -2.73394900      -0.08575700
H       -4.51942400      -2.12218100      -1.02350200
H       -2.78298200      -0.12120900      -2.61223100
H       -4.37136700       0.27315000      -1.88233700
H       -2.90115300       1.21256200      -1.44035600
H       -1.94692100      -0.77343800      -0.52697600
47
2sa1ma2tma-43
S       -1.34784300       1.91865100       0.20442800
O       -0.02280400       2.54612200       0.34469700
O       -2.50332500       2.78024200       0.38473100
O       -1.47676400       1.38724200      -1.31067900
O       -1.42651800       0.65883400       1.03820200
H       -0.12428600      -0.41937900       1.02549700
H       -0.85835100       0.61478200      -1.45566600
S        0.19985500      -1.75827700      -0.61740100
O        0.58324600      -1.07965900       0.80654900
O        0.25323200      -0.59799100      -1.58497500
O        1.25960400      -2.72518700      -0.84211500
O       -1.17188800      -2.26491200      -0.48940700
H       -2.73625700      -0.30085200       0.59203300
C        2.77613400       2.07993300      -1.75716000
N        2.15715200       1.21001100      -0.74077900
H        1.47375300       1.74120000      -0.16909700
H        1.58672800       0.45813000      -1.17988800
H        3.35212100       2.86328200      -1.26340400
H        3.43508000       1.48418800      -2.39001600
H        1.99655300       2.53590000      -2.36776600
H        2.88885200       0.74442000      -0.12192800
N       -3.70032900      -0.67931900       0.41135300
C       -4.63239600       0.32485700       0.98611700
C       -3.86497600      -0.80191800      -1.06188900
C       -3.80369400      -1.99509200       1.09006200
H       -3.10283800      -1.48940000      -1.42829700
H       -4.87048400      -1.17422400      -1.27164600
H       -3.71479400       0.18188700      -1.50642900
H       -4.45074200       0.39546800       2.05867100
H       -4.42480300       1.29455000       0.53146500
H       -5.65973700       0.00761700       0.79433500
H       -3.62560000      -1.85116200       2.15633200
H       -4.80623300      -2.39836000       0.92959100
H       -3.04113900      -2.65289700       0.67441200
N        4.12499500      -0.12219900       0.73051000
C        4.31476100      -1.34293500      -0.05633500
C        5.36103600       0.64691200       0.82170600
C        3.59883900      -0.43714000       2.05923900
H        5.18154700       1.57340000       1.37520400
H        6.15956500       0.08520300       1.33483900
H        5.71365000       0.90342700      -0.18202600
H        3.36550700      -1.87666700      -0.15460200
H        4.66943600      -1.08053800      -1.05819900
H        5.05646100      -2.01295000       0.40852300
H        2.65683100      -0.97885100       1.95390400
H        4.30849000      -1.04927300       2.64001700
H        3.40928100       0.49044700       2.60765200
47
2sa1ma2tma-35
S        0.06743800      -1.85210900       0.10559600
O        1.34690900      -1.35969400       0.75802000
O        0.07744200      -3.29269400      -0.13827400
O       -1.07471500      -1.44563000       1.03762700
O       -0.12891500      -1.07145300      -1.18145000
H       -0.10926800       0.53558300      -1.28392300
H       -0.51702000      -0.32651700       2.05979100
S       -0.24408900       2.33936000      -0.08369300
O       -0.33443400       3.73218100      -0.47978900
O        0.99830300       1.98625500       0.67854800
O       -1.43588300       1.77903200       0.60672300
O       -0.12699900       1.52361900      -1.46846400
N       -0.02911100       0.41092800       2.64517900
H       -0.73617900       1.04090900       3.01743800
H        0.51494900       0.97357500       1.94600200
C        0.82364300      -0.20445800       3.67671500
H        0.20514200      -0.76016800       4.38249600
H        1.49862700      -0.89188200       3.16710900
H        1.38710400       0.56640200       4.20443800
N        3.13125100      -0.27852800      -0.76914300
C        2.68627600       0.25444100      -2.07874300
C        3.82872200       0.75168600       0.03433000
C        3.93560500      -1.51081000      -0.93026400
H        4.11276000       0.31133400       0.99149800
H        4.72096700       1.08732000      -0.50092100
H        3.13298900       1.57589600       0.20174800
H        2.05263900      -0.49360500      -2.55601800
H        2.09812900       1.15622900      -1.91318900
H        3.56603700       0.47093500      -2.69097800
H        3.33861000      -2.24694000      -1.46961300
H        4.85127800      -1.28198500      -1.48147800
H        4.17273300      -1.90710300       0.05707200
H        2.27565900      -0.59963000      -0.19635900
N       -3.06435000      -0.51776300      -0.55682500
C       -3.34035900      -1.93518800      -0.90287100
C       -3.99810700       0.00419500       0.46815000
C       -3.03298800       0.34300000      -1.76391700
H       -3.68390200       1.01701400       0.72046500
H       -5.01433600      -0.00570400       0.06743400
H       -3.93276700      -0.63715000       1.34770600
H       -2.57012800      -2.27158600      -1.59718600
H       -3.27598000      -2.53205700       0.00590800
H       -4.33299500      -2.00491300      -1.35351700
H       -2.26850900      -0.04177100      -2.43732900
H       -4.01757500       0.31299900      -2.23720900
H       -2.77263000       1.35527300      -1.46087300
H       -2.12485000      -0.53105000      -0.09934400
