1sa_1b.log
 OpenBabel02281909533D
Gaussian kemi/andersx/programs/g09/g09 # opt freq 6-31++g(d,p) wb97xd
 13 11  0  0  0  0  0  0  0  0999 V2000
    1.8822    0.0800    0.0003 S   0  0  0  0  0  0  0  0  0  0  0  0
    1.3773   -0.7457   -1.2412 O   0  0  0  0  0  0  0  0  0  0  0  0
    1.3725   -0.7399    1.2427 O   0  0  0  0  0  0  0  0  0  0  0  0
    3.3222    0.0386    0.0026 O   0  0  0  0  0  0  0  0  0  0  0  0
    1.2094    1.3808   -0.0043 O   0  0  0  0  0  0  0  0  0  0  0  0
    0.3575   -0.7075   -1.2868 H   0  0  0  0  0  0  0  0  0  0  0  0
    0.3517   -0.6978    1.2885 H   0  0  0  0  0  0  0  0  0  0  0  0
   -1.8730   -0.0937    0.0002 S   0  0  0  0  0  0  0  0  0  0  0  0
   -1.1889   -0.6088   -1.2217 O   0  0  0  0  0  0  0  0  0  0  0  0
   -1.1899   -0.5961    1.2285 O   0  0  0  0  0  0  0  0  0  0  0  0
   -3.3141   -0.2371    0.0008 O   0  0  0  0  0  0  0  0  0  0  0  0
   -1.6150    1.5059   -0.0076 O   0  0  0  0  0  0  0  0  0  0  0  0
   -0.6444    1.6416   -0.0073 H   0  0  0  0  0  0  0  0  0  0  0  0
  1  4  2  0  0  0  0
  1  3  1  0  0  0  0
  2  1  1  0  0  0  0
  3  7  1  0  0  0  0
  5  1  2  0  0  0  0
  6  2  1  0  0  0  0
  8 11  2  0  0  0  0
  8 10  1  0  0  0  0
  9  8  2  0  0  0  0
 12 13  1  0  0  0  0
 12  8  1  0  0  0  0
M  RAD  1  10   2
M  END
$$$$
