5sa_1b.log
 OpenBabel02281909533D
Gaussian kemi/andersx/programs/g09/g09 # opt freq 6-31++g(d,p) wb97xd
 41 35  0  0  0  0  0  0  0  0999 V2000
    3.8674    2.4801   -0.0497 S   0  0  0  0  0  0  0  0  0  0  0  0
    4.6172    1.3952    0.8005 O   0  0  0  0  0  0  0  0  0  0  0  0
    2.6221    2.8398    0.8652 O   0  0  0  0  0  0  0  0  0  0  0  0
    4.7307    3.6210   -0.1449 O   0  0  0  0  0  0  0  0  0  0  0  0
    3.3491    1.8620   -1.2733 O   0  0  0  0  0  0  0  0  0  0  0  0
    4.2058    0.4954    0.6710 H   0  0  0  0  0  0  0  0  0  0  0  0
    1.7693    2.6626    0.3935 H   0  0  0  0  0  0  0  0  0  0  0  0
    3.0863   -2.1024    0.9616 S   0  0  0  0  0  0  0  0  0  0  0  0
    1.7962   -1.7826    1.8105 O   0  0  0  0  0  0  0  0  0  0  0  0
    2.6045   -3.1855   -0.0702 O   0  0  0  0  0  0  0  0  0  0  0  0
    3.4440   -0.8868    0.2242 O   0  0  0  0  0  0  0  0  0  0  0  0
    4.0615   -2.7157    1.8151 O   0  0  0  0  0  0  0  0  0  0  0  0
    1.2322   -1.1137    1.3425 H   0  0  0  0  0  0  0  0  0  0  0  0
    1.7085   -2.9750   -0.4484 H   0  0  0  0  0  0  0  0  0  0  0  0
   -0.8477   -3.1008   -1.7629 S   0  0  0  0  0  0  0  0  0  0  0  0
   -1.1903   -1.9053   -2.7369 O   0  0  0  0  0  0  0  0  0  0  0  0
   -2.2018   -3.3934   -1.0215 O   0  0  0  0  0  0  0  0  0  0  0  0
   -0.5345   -4.2494   -2.5619 O   0  0  0  0  0  0  0  0  0  0  0  0
    0.1172   -2.6033   -0.7797 O   0  0  0  0  0  0  0  0  0  0  0  0
   -1.1325   -1.0386   -2.2576 H   0  0  0  0  0  0  0  0  0  0  0  0
   -2.4729   -2.6333   -0.4352 H   0  0  0  0  0  0  0  0  0  0  0  0
   -3.1006   -1.0819    1.8165 S   0  0  0  0  0  0  0  0  0  0  0  0
   -3.9904    0.1941    2.0447 O   0  0  0  0  0  0  0  0  0  0  0  0
   -1.6982   -0.6689    2.4081 O   0  0  0  0  0  0  0  0  0  0  0  0
   -3.6509   -2.1341    2.6196 O   0  0  0  0  0  0  0  0  0  0  0  0
   -2.9343   -1.2740    0.3722 O   0  0  0  0  0  0  0  0  0  0  0  0
   -3.6005    0.9866    1.5869 H   0  0  0  0  0  0  0  0  0  0  0  0
   -1.0844   -0.3391    1.7013 H   0  0  0  0  0  0  0  0  0  0  0  0
   -3.0723    3.0032   -0.3175 S   0  0  0  0  0  0  0  0  0  0  0  0
   -3.2495    1.9952   -1.5203 O   0  0  0  0  0  0  0  0  0  0  0  0
   -1.7870    3.8357   -0.6902 O   0  0  0  0  0  0  0  0  0  0  0  0
   -4.1939    3.8938   -0.3260 O   0  0  0  0  0  0  0  0  0  0  0  0
   -2.7498    2.2198    0.8785 O   0  0  0  0  0  0  0  0  0  0  0  0
   -2.5273    1.3176   -1.4890 H   0  0  0  0  0  0  0  0  0  0  0  0
   -0.9676    3.2831   -0.5802 H   0  0  0  0  0  0  0  0  0  0  0  0
    0.1447    0.7435   -0.6173 S   0  0  0  0  0  0  0  0  0  0  0  0
    1.3073    0.2049   -1.5179 O   0  0  0  0  0  0  0  0  0  0  0  0
   -1.0806    0.4085   -1.3751 O   0  0  0  0  0  0  0  0  0  0  0  0
    0.2126    0.0604    0.6945 O   0  0  0  0  0  0  0  0  0  0  0  0
    0.3341    2.2113   -0.4612 O   0  0  0  0  0  0  0  0  0  0  0  0
    2.1404    0.7448   -1.4077 H   0  0  0  0  0  0  0  0  0  0  0  0
  1  2  1  0  0  0  0
  1  3  1  0  0  0  0
  4  1  2  0  0  0  0
  5  1  2  0  0  0  0
  6  2  1  0  0  0  0
  7  3  1  0  0  0  0
  8  9  1  0  0  0  0
  8 12  2  0  0  0  0
 10  8  1  0  0  0  0
 11  8  2  0  0  0  0
 13  9  1  0  0  0  0
 14 10  1  0  0  0  0
 15 17  1  0  0  0  0
 15 19  2  0  0  0  0
 16 20  1  0  0  0  0
 16 15  1  0  0  0  0
 17 21  1  0  0  0  0
 18 15  2  0  0  0  0
 22 23  1  0  0  0  0
 22 24  1  0  0  0  0
 22 25  2  0  0  0  0
 26 22  2  0  0  0  0
 27 23  1  0  0  0  0
 28 24  1  0  0  0  0
 29 33  2  0  0  0  0
 30 34  1  0  0  0  0
 30 29  1  0  0  0  0
 31 35  1  0  0  0  0
 31 29  1  0  0  0  0
 32 29  2  0  0  0  0
 36 40  2  0  0  0  0
 36 39  1  0  0  0  0
 37 41  1  0  0  0  0
 37 36  1  0  0  0  0
 38 36  2  0  0  0  0
M  RAD  1  39   2
M  END
$$$$
