28
1msa1fa1am1dma-1
S        1.98279700      -0.17782300      -0.15173600
O        1.82367700      -1.34292600      -1.05065400
O        1.27136900      -0.36751900       1.14891700
O        1.61439200       1.11990900      -0.78333000
H        0.01480900       1.50091600      -0.37567900
C        3.72057900      -0.05474900       0.22718100
H        4.03400500      -0.98701900       0.69711700
H        4.25664500       0.10384900      -0.70864600
H        3.86559900       0.78730200       0.90394700
H       -4.52218500      -1.13849500      -0.30975600
H       -1.39316700      -2.30941700       0.12414300
C       -3.42706900      -1.08584700      -0.16320600
O       -2.82887900      -2.19327400      -0.11818500
O       -2.92648300       0.05816900      -0.05878000
N       -0.32896300      -2.52679800       0.34197100
H       -0.23663100      -3.46393100       0.72255500
H        0.07085700      -1.83358600       0.99384600
H        0.26986600      -2.42545200      -0.48898000
N       -0.93015500       1.76367000      -0.01147300
C       -1.52519600       2.80088600      -0.87599900
C       -0.78394800       2.16297800       1.40342900
H       -1.56314200       0.91922600      -0.04784600
H       -0.88725100       3.68660800      -0.87574800
H       -1.60803300       2.40452700      -1.88778400
H       -2.52009100       3.04723900      -0.50283600
H       -0.20641800       3.08759300       1.46060500
H       -1.77472800       2.30812500       1.83700000
H       -0.24986900       1.36508900       1.92018200
28
1msa1fa1am1dma-2
S       -1.60551300      -0.45014500      -0.02938900
O       -1.48246300      -1.71610100       0.70856300
O       -0.76679500      -0.39399400      -1.26036400
O       -1.35425700       0.74276200       0.84768100
C       -3.29510900      -0.29804600      -0.57795100
H       -3.51611300      -1.14167300      -1.23205000
H       -3.93743000      -0.31359400       0.30281800
H       -3.39791300       0.64510300      -1.11490000
H        1.30535800       3.78767200      -0.89267700
H       -0.68636400       2.04127100       0.19092800
C        0.95244800       2.86498500      -0.40970500
O       -0.33994900       2.89785700      -0.21311000
O        1.70973900       1.95953500      -0.10746700
N        1.69478000      -1.20383900      -0.31242000
C        2.94766000      -0.81327600      -0.98364000
C        1.50581500      -2.66092500      -0.15707500
H        1.63947200      -0.75485800       0.65366100
H        2.96845100      -1.23636700      -1.98993900
H        2.98796100       0.27474900      -1.02752200
H        3.79548100      -1.19551800      -0.41117600
H        1.53235200      -3.13783200      -1.13861200
H        2.30468600      -3.06062100       0.47095900
H        0.53219000      -2.82414700       0.30814900
H        0.86510000      -0.81852300      -0.81754500
N        1.30239300       0.01947400       2.15776600
H        1.39438600      -0.39526300       3.07846100
H        0.31680000       0.24578500       2.00207400
H        1.80849200       0.89980800       2.13796600
28
1msa1fa1am1dma-5
S        1.70060800      -0.28198500       0.06069000
O        1.72812000      -1.75081200       0.10863900
O        1.47850700       0.39117600       1.35292500
O        0.69798000       0.19430900      -0.98198000
C        3.28029800       0.27583400      -0.55252000
H        4.04155600      -0.03742400       0.16228500
H        3.45167600      -0.18372700      -1.52589200
H        3.25286600       1.36278300      -0.63336800
H       -1.52348200       3.84676100      -0.02303200
H        0.17411100       1.69722300      -0.84307800
C       -1.25236100       2.78946500      -0.15295000
O       -0.11210900       2.66312400      -0.78092300
O       -1.95969000       1.88113800       0.24746100
N       -1.55560000      -1.32020400      -0.36637900
C       -2.83328000      -0.93784400      -0.99553100
C       -1.23364300      -2.75929700      -0.45505900
H       -0.77061400      -0.76410200      -0.76942200
H       -3.64571000      -1.49613000      -0.52578600
H       -2.98044700       0.13129000      -0.84463600
H       -2.79933000      -1.17045200      -2.06180500
H       -1.99068400      -3.32843800       0.08828900
H       -1.22319400      -3.06472900      -1.50318500
H       -0.24414700      -2.91131900      -0.02198700
H       -1.55481400      -1.01839400       0.66202300
N       -1.32327500      -0.32290500       2.19974600
H       -1.82709100       0.55889200       2.14467400
H       -0.32593200      -0.08928500       2.16455700
H       -1.52091900      -0.75985500       3.09313600
