57
3sa3eda-96
S        3.19764900      -0.16749100       1.11414100
O        2.52225500      -0.88407400       2.21100400
O        3.63827700      -1.03419600       0.00938500
O        2.47090100       1.04850300       0.69084500
O        4.55906200       0.46108800       1.73808200
H        5.16931700      -0.26707000       1.91866900
S        0.86685400      -2.00984800      -1.80253700
O        1.31865300      -1.14934900      -2.91189000
O        0.47420800      -1.18507000      -0.62215100
O       -0.17564400      -2.98265800      -2.15668900
O        2.10328100      -2.88758500      -1.30910300
H        2.73402500      -2.28438500      -0.84295600
S       -2.06291500       2.17778200       0.28213300
O       -3.51854100       2.18906300       0.32063400
O       -1.61799400       3.50861400      -0.46452900
O       -1.38554100       2.19636100       1.60357300
O       -1.50950200       1.04958400      -0.55042100
C       -1.19264600      -0.98360200       2.68200000
C       -0.90061000      -2.47586600       2.68521700
N       -0.99728500      -3.02669500       1.32986000
N       -0.17488800      -0.22276400       1.91725300
H       -0.44795600       0.78260300       1.88801200
H       -0.12146100      -0.52883200       0.93239500
H       -2.16463900      -0.78881600       2.21774500
H       -1.19797200      -0.58958300       3.70074000
H       -1.66261300      -2.95199500       3.30874100
H        0.07607200      -2.66773500       3.15086700
H       -1.10442000      -4.03493700       1.36098200
H       -0.14093700      -2.84800000       0.80639100
H        0.78490100      -0.34905000       2.28327100
C       -3.79906300      -1.82298000      -1.14808400
N       -2.35577400      -1.67314400      -0.84550800
C       -4.59667500      -0.71992300      -0.46125800
N       -4.29928700      -0.66144900       0.96791300
H       -1.73988700      -2.16294400      -1.51776600
H       -2.10106200      -2.09049000       0.07734300
H       -3.93273300      -1.77091800      -2.23127300
H       -4.10527000      -2.81730100      -0.81159600
H       -5.66049700      -0.87769300      -0.68315900
H       -4.31714100       0.24395900      -0.89611300
H       -4.97994200      -1.17283100       1.51737800
H       -4.30309700       0.31020000       1.26720800
H       -2.07220000      -0.67492200      -0.80910900
C        1.90008500       3.60042800      -1.20986900
C        1.31401000       2.65306800      -2.25150400
N        1.05126600       1.31145700      -1.67623000
N        1.03362900       3.69757600      -0.02672900
H        1.23376000       4.54965000       0.48761400
H        1.24250100       2.93258400       0.61567900
H        2.91020500       3.26944200      -0.93974400
H        1.98166700       4.58813900      -1.67131800
H        2.01729200       2.54066300      -3.07927400
H        0.36953100       3.03777800      -2.64289900
H        1.70252800       1.08349100      -0.90118200
H        1.14267400       0.53030400      -2.35567700
H       -0.62468700       3.64449900      -0.29925600
H        0.09706500       1.23322400      -1.26635000
57
3sa3eda-139
S        0.22152000      -1.92649000      -1.07064200
O       -0.04308300      -2.60438600       0.22444900
O        0.24553500      -0.43914500      -0.86013900
O        1.43307700      -2.37908900      -1.75586900
O       -0.98764700      -2.23566100      -2.03484400
H       -1.83094400      -1.93390900      -1.57457300
S        1.45971600       3.14199600       0.37798700
O        2.30662100       2.71007100      -0.75448800
O        0.06801100       3.42435200      -0.01768700
O        1.60204400       2.28635900       1.56623600
O        2.06629100       4.55672100       0.88543200
H        1.89425200       5.22107300       0.20433600
S       -3.28279400      -1.22684600       0.74176100
O       -2.98841000      -1.21074300      -0.72638400
O       -2.59844000      -0.06683900       1.39107400
O       -4.68256000      -1.36092500       1.07555500
O       -2.55980100      -2.54306900       1.31901100
H       -1.66514100      -2.63521900       0.91533600
C       -2.56257700       1.60650000      -2.14529300
N       -1.77791800       1.49092900      -0.89339100
C       -3.83737700       2.40388900      -1.88252300
N       -4.50057500       1.85191800      -0.71365900
H       -1.10209100       0.70908600      -0.94937800
H       -2.42309600       1.27293600      -0.11302100
H       -1.94082000       2.07180100      -2.91220000
H       -2.81014700       0.58789800      -2.44999800
H       -4.43570600       2.39752500      -2.80555600
H       -3.58027000       3.44730800      -1.66849400
H       -4.91159300       0.93929000      -0.88329000
H       -5.21225900       2.46394200      -0.33773300
H       -1.23440800       2.33714600      -0.65679400
C        0.55688700      -0.86570300       2.98342200
N        0.04065700       0.03992700       1.93339000
C        2.07061600      -1.00415800       2.90829900
N        2.48308800      -1.48162400       1.58630400
H       -1.00515000       0.05112300       1.90423800
H        0.31046600      -0.28570000       0.99057900
H        0.25791600      -0.46568700       3.95390900
H        0.06681000      -1.83197900       2.84158600
H        2.37333400      -1.68009500       3.71914300
H        2.54066400      -0.03192200       3.09123000
H        1.91097400      -2.27614900       1.29933500
H        3.44632400      -1.80968400       1.57802400
H        0.43391300       0.99365500       2.00769800
C        4.46788400      -0.14862700      -1.07790900
N        3.02275200       0.04258000      -0.80497100
C        4.75700800      -1.55880000      -1.57978000
N        4.28847800      -2.57019100      -0.63357600
H        2.76624200       1.05137500      -0.74033100
H        2.74217000      -0.43095700       0.09285800
H        4.77428100       0.59390800      -1.81862000
H        5.00060700       0.04804200      -0.14467600
H        5.84160000      -1.64219600      -1.69612900
H        4.31498900      -1.68096200      -2.57979700
H        4.83965300      -3.41603500      -0.71932400
H        3.32640900      -2.82226100      -0.85909800
H        2.43282400      -0.37645300      -1.52971200
57
3sa3eda-118
S        0.84690300       3.08982100       0.45162900
O       -0.47723100       2.98073200       1.06839800
O        1.89483900       2.40244400       1.26447500
O        0.91020000       2.71335600      -0.96818900
O        1.25256900       4.65769500       0.43638300
H        1.10749800       5.01971300       1.32139200
S       -2.99095900      -1.22172600       0.91579000
O       -2.95168900      -1.51467900      -0.54809600
O       -2.24891000       0.05773800       1.17463500
O       -4.30016600      -1.27863900       1.52278800
O       -2.11986400      -2.37332900       1.62101200
H       -1.31435100      -2.56254900       1.07679200
S        0.40751400      -1.98285600      -1.04833600
O        0.18816500      -2.65905200       0.26200600
O        0.44321300      -0.49876100      -0.82958900
O        1.55941700      -2.47375600      -1.79386200
O       -0.85971300      -2.27310400      -1.94976000
H       -1.68720800      -2.03707000      -1.43593400
C       -4.05708600       1.60653800      -1.45298100
N       -3.96143000       0.56695000      -2.47710500
C       -2.72426800       2.35232800      -1.35567600
N       -1.64213500       1.34688400      -1.24541900
H       -4.65340900       0.66867900      -3.20639000
H       -4.04004000      -0.35854700      -2.06678900
H       -4.84191300       2.33329200      -1.68351700
H       -4.29788600       1.17458500      -0.47591800
H       -2.66612700       3.00009700      -0.47958500
H       -2.53743100       2.93823700      -2.25884300
H       -1.72167700       0.84499000      -0.33855000
H       -0.69970100       1.75927500      -1.30699400
H       -1.77281400       0.65219700      -1.98906200
C        2.26718200      -1.16725700       2.96214700
N        2.71793500      -1.56888900       1.62855200
C        0.76382600      -0.92852100       2.98586000
N        0.34338700       0.05327300       1.95971500
H        2.13756000      -2.32448700       1.26285000
H        3.67615400      -1.90521200       1.64296800
H        2.48323500      -1.91648200       3.73572900
H        2.79259300      -0.24703000       3.24392100
H        0.45636900      -0.54903200       3.96207000
H        0.21331100      -1.84945300       2.78719000
H        0.81317900       0.96490700       2.05536100
H       -0.69060300       0.18490800       1.93907300
H        0.54678500      -0.27990700       0.99845800
C        4.37517100      -0.80830500      -2.04301000
N        4.42232600      -1.94059800      -1.11736700
C        4.21983000       0.50529300      -1.28290000
N        3.01296100       0.45851400      -0.42898300
H        5.20015900      -2.55412500      -1.32313800
H        3.56480000      -2.48133800      -1.20729100
H        5.29476200      -0.74125100      -2.63280400
H        3.54273000      -0.91535100      -2.74945500
H        4.11928500       1.35353900      -1.96452200
H        5.07790800       0.67225200      -0.62732800
H        2.14307600       0.29749500      -0.96253300
H        2.85171300       1.32314300       0.11335300
H        3.04084100      -0.32786600       0.26617600
