4sa_1b.log
 OpenBabel02281909533D
Gaussian kemi/andersx/programs/g09/g09 # opt freq 6-31++g(d,p) wb97xd
 34 29  0  0  0  0  0  0  0  0999 V2000
    2.7883   -3.0864   -0.2896 S   0  0  0  0  0  0  0  0  0  0  0  0
   -5.0486   -0.7105    0.1794 S   0  0  0  0  0  0  0  0  0  0  0  0
   -1.2877   -0.6577    0.0569 S   0  0  0  0  0  0  0  0  0  0  0  0
    0.3514    3.4823   -0.4552 S   0  0  0  0  0  0  0  0  0  0  0  0
   -1.9225   -1.5278   -0.9362 O   0  0  0  0  0  0  0  0  0  0  0  0
    0.1825   -0.5977   -0.0436 O   0  0  0  0  0  0  0  0  0  0  0  0
   -1.8966    0.7121    0.0610 O   0  0  0  0  0  0  0  0  0  0  0  0
   -6.4808   -0.7195    0.2228 O   0  0  0  0  0  0  0  0  0  0  0  0
   -4.2780   -1.1580    1.3389 O   0  0  0  0  0  0  0  0  0  0  0  0
    2.3182   -2.7176    1.0302 O   0  0  0  0  0  0  0  0  0  0  0  0
    2.9295   -4.4569   -0.6987 O   0  0  0  0  0  0  0  0  0  0  0  0
    1.6504    3.9390    0.0384 O   0  0  0  0  0  0  0  0  0  0  0  0
   -0.6036    4.4552   -0.9069 O   0  0  0  0  0  0  0  0  0  0  0  0
   -1.5451   -1.2613    1.5040 O   0  0  0  0  0  0  0  0  0  0  0  0
   -4.5893    0.7611   -0.1788 O   0  0  0  0  0  0  0  0  0  0  0  0
   -4.6042   -1.5641   -1.0752 O   0  0  0  0  0  0  0  0  0  0  0  0
    4.2103   -2.4162   -0.5389 O   0  0  0  0  0  0  0  0  0  0  0  0
    1.8673   -2.3547   -1.3633 O   0  0  0  0  0  0  0  0  0  0  0  0
   -0.2102    2.5886    0.7113 O   0  0  0  0  0  0  0  0  0  0  0  0
    0.5615    2.4596   -1.6402 O   0  0  0  0  0  0  0  0  0  0  0  0
   -3.6021    0.8405   -0.0984 H   0  0  0  0  0  0  0  0  0  0  0  0
   -3.6124   -1.6384   -1.0994 H   0  0  0  0  0  0  0  0  0  0  0  0
   -2.5220   -1.3125    1.6293 H   0  0  0  0  0  0  0  0  0  0  0  0
    1.2335   -1.7482   -0.9160 H   0  0  0  0  0  0  0  0  0  0  0  0
    4.2731   -1.5544   -0.0689 H   0  0  0  0  0  0  0  0  0  0  0  0
    1.2870    1.8215   -1.4131 H   0  0  0  0  0  0  0  0  0  0  0  0
   -0.9261    1.9501    0.4175 H   0  0  0  0  0  0  0  0  0  0  0  0
    3.1536    0.8946    0.5209 S   0  0  0  0  0  0  0  0  0  0  0  0
    3.5336    2.3325    1.0028 O   0  0  0  0  0  0  0  0  0  0  0  0
    2.0061    0.5142    1.5178 O   0  0  0  0  0  0  0  0  0  0  0  0
    4.3174    0.0617    0.7384 O   0  0  0  0  0  0  0  0  0  0  0  0
    2.6112    0.9334   -0.8349 O   0  0  0  0  0  0  0  0  0  0  0  0
    2.8276    2.9815    0.7167 H   0  0  0  0  0  0  0  0  0  0  0  0
    1.2700    0.0362    1.0422 H   0  0  0  0  0  0  0  0  0  0  0  0
  1 10  2  0  0  0  0
  2  8  2  0  0  0  0
  2  9  2  0  0  0  0
  3  7  1  0  0  0  0
  3 14  1  0  0  0  0
  4 12  2  0  0  0  0
  4 19  1  0  0  0  0
  5  3  2  0  0  0  0
  6  3  2  0  0  0  0
 11  1  2  0  0  0  0
 13  4  2  0  0  0  0
 14 23  1  0  0  0  0
 15 21  1  0  0  0  0
 15  2  1  0  0  0  0
 16  2  1  0  0  0  0
 17  1  1  0  0  0  0
 17 25  1  0  0  0  0
 18 24  1  0  0  0  0
 18  1  1  0  0  0  0
 20 26  1  0  0  0  0
 20  4  1  0  0  0  0
 22 16  1  0  0  0  0
 27 19  1  0  0  0  0
 28 31  2  0  0  0  0
 28 29  1  0  0  0  0
 28 30  1  0  0  0  0
 32 28  2  0  0  0  0
 33 29  1  0  0  0  0
 34 30  1  0  0  0  0
M  RAD  1   7   2
M  END
$$$$
