34
2msa1nta1am1ma-1
N       -0.82196600      -0.93791800       1.96746000
H        0.20749900      -1.03658600       1.91054600
C       -1.40463600      -1.45404500       3.22019700
H       -0.99849600      -0.90697600       4.07123500
H       -2.48678600      -1.33351000       3.17603800
H       -1.16313800      -2.51253000       3.31436000
H       -1.01495700       0.06294100       1.82773500
N       -0.32394700      -0.75918300      -2.47154500
H       -1.30292100      -1.12763500      -2.40553000
H       -0.32342600       0.18885500      -2.06330200
H        0.31725700      -1.34816700      -1.90173100
N       -2.77627300      -1.55544400      -0.66584400
O       -2.96704900      -1.34674500      -1.88772900
O       -3.62856400      -1.30877300       0.18390200
O       -1.63998800      -2.02291100      -0.32019100
H       -0.00138600      -0.71724000      -3.43359800
S        2.34779700      -0.95194400      -0.05411700
O        1.91002500      -0.90044200       1.35780700
O        2.29319700       0.40202000      -0.71122500
O        1.64959500      -1.96068600      -0.87739400
H       -1.21652000      -1.44134500       1.12418400
C        4.07101100      -1.39746800      -0.03672200
H        4.60762600      -0.65657600       0.55582200
H        4.15591600      -2.38703800       0.41257500
H        4.43073400      -1.40753300      -1.06549800
S       -0.30208500       2.40299400       0.05075700
O       -0.94951600       1.83305900       1.23272200
O       -0.64827600       1.80359900      -1.24101400
O        1.24624700       2.44257600       0.23187000
H        1.70571400       1.56536300      -0.11606300
C       -0.67610600       4.13471600       0.00130900
H       -1.75906900       4.22250600      -0.08931900
H       -0.32599500       4.58444700       0.93005000
H       -0.17511800       4.56923200      -0.86293500
34
2msa1nta1am1ma-6
N       -0.33289600       2.24436800      -0.93927200
H       -0.84575300       1.58756700      -1.52846800
C       -0.36455200       3.61692300      -1.47694200
H       -1.40255300       3.93851700      -1.56103700
H        0.17303900       4.27501800      -0.79495300
H        0.11804400       3.63746200      -2.45395500
H       -0.83511600       2.18025100      -0.02498000
N       -0.46634500      -0.17444300       2.49670200
H       -0.46111600      -0.16283300       3.51196300
H        0.49244100      -0.00232100       2.11921000
H       -0.77500500      -1.09221600       2.14451200
N       -2.83525500       1.06096900       0.54579400
O       -3.31768700       0.03961300       1.03924100
O       -3.13492200       1.47374400      -0.58045500
O       -1.95232100       1.71849200       1.22442100
H       -1.11804300       0.56048600       2.11648300
S        2.65849300       0.18047500       0.13205700
O        2.52570000      -1.17549300      -0.47208100
O        2.05144100       0.28100800       1.48368800
O        2.22627000       1.27334800      -0.77590000
H        0.63675300       1.86740400      -0.83289100
C        4.41070900       0.39725100       0.36484200
H        4.76290600      -0.39192900       1.02891900
H        4.89217100       0.32693300      -0.61033000
H        4.57240900       1.37919200       0.80952200
S       -0.74516500      -1.85744700      -0.47165100
O       -0.65240700      -0.39819000      -0.48899300
O       -0.84925500      -2.47586800       0.85122300
O        0.46633200      -2.45210800      -1.27008800
H        1.31312300      -1.94572400      -0.98620600
C       -2.12053000      -2.37165500      -1.45732700
H       -3.00132900      -1.94134500      -0.97569900
H       -1.99215200      -1.97198500      -2.46255400
H       -2.16056400      -3.46065900      -1.46050900
34
2msa1nta1am1ma-4
N        0.00375000       0.39552200       2.29398600
H       -0.76214200      -0.21746700       1.94555500
H        0.04946200       1.20986500       1.66508000
H       -0.18690200       0.69943500       3.24399800
H        0.92781100      -0.10444600       2.22605900
N       -0.23978900      -1.88662600      -1.66273600
H        0.39117800      -1.18281900      -1.18320500
H       -1.18076200      -1.44426100      -1.71351600
C       -0.29599500      -3.12956400      -0.85354300
H       -0.88483100      -3.88100800      -1.38002800
H        0.72247900      -3.47392300      -0.67573000
H       -0.77866900      -2.87839800       0.09124200
H        0.12508500      -2.05529600      -2.59680700
N        0.70956200       2.59082400      -0.64919900
O        0.60896400       2.66034400       0.57230900
O        1.67343600       2.89349100      -1.30206500
O       -0.35351900       2.16593500      -1.34061400
H       -1.05282500       1.84961100      -0.67826400
S       -2.72369600      -0.11639800       0.12290800
O       -2.09507200      -1.02395700       1.12142100
O       -2.65940300      -0.64611500      -1.25948200
O       -2.18725300       1.27240700       0.24527300
C       -4.45116700      -0.00505300       0.53518700
H       -4.87601400      -1.00730800       0.47990200
H       -4.53810100       0.39896500       1.54369900
H       -4.92679700       0.65701300      -0.18830900
S        2.47642100      -0.80126600       0.29857400
O        2.74293500      -2.11212400      -0.30707500
O        2.38539800      -0.79966900       1.78564600
O        1.24663800      -0.15554500      -0.28645400
C        3.82525600       0.28484500      -0.11970400
H        3.61178600       1.27220800       0.29052700
H        4.73514800      -0.13037600       0.31440500
H        3.90026700       0.33329300      -1.20599200
