61
4sa1ma2tma-37
S        2.85178200      -0.20073600       2.11336900
O        1.93469200       0.14638700       3.21180800
O        3.98484600      -1.05157300       2.43042400
O        2.05102900      -0.69215400       0.93087600
O        3.51773800       1.16375400       1.57619400
H        2.83328900       1.69042400       1.10849300
H        0.61074300      -1.39117700       1.09752800
S       -2.90353300       1.53115900      -0.32573300
O       -2.76378600       0.51000000       0.76871800
O       -1.76739200       2.48820600      -0.24306000
O       -2.73027400       0.71497800      -1.68611100
O       -4.22885600       2.11735600      -0.40020200
H       -3.74565600      -0.84249000       0.46026400
H       -1.89519400       0.17226200      -1.61873600
S        1.51688600       2.24741100      -1.33187100
O        1.42970900       2.29455600       0.14018700
O        2.62156000       2.91544700      -1.96119100
O        1.57725800       0.74735800      -1.78647500
O        0.16894700       2.78368100      -1.90694500
H       -0.61123700       2.67376600      -1.26510700
H        0.74876500       0.19664600      -1.51856400
S       -0.51943100      -1.94324900      -0.60275000
O       -0.33429100      -1.69286100       0.96391400
O       -1.84899500      -2.52842900      -0.72996200
O       -0.48805000      -0.55723000      -1.23019600
O        0.62200200      -2.73245700      -1.06165400
H        2.82208500      -1.15398900      -0.60877300
C       -0.84044800       2.36800400       2.86752300
N       -0.37287900       1.22369000       2.05455300
H       -1.16840200       0.66730500       1.70024600
H        0.12800000       1.57109700       1.22307500
H       -1.39940300       1.99284500       3.72424200
H        0.02743700       2.93031100       3.21093300
H       -1.47508800       2.99653500       2.24448800
H        0.30884200       0.64645600       2.57880100
N       -4.60237200      -1.44090400       0.37220400
C       -5.69727700      -0.63910200       0.97775700
C       -4.84154500      -1.68037200      -1.07694100
C       -4.35262500      -2.70494100       1.10976800
H       -3.97229600      -2.19499900      -1.48362500
H       -5.74570300      -2.28373000      -1.18517700
H       -4.95974000      -0.71640400      -1.57150700
H       -5.46509100      -0.46776500       2.02893100
H       -5.74954900       0.32092200       0.46167200
H       -6.63607200      -1.18862500       0.88211600
H       -4.13315600      -2.46374400       2.15035700
H       -5.24530900      -3.33159100       1.05087000
H       -3.49279600      -3.19803200       0.65735700
N        3.60449900      -1.56569100      -1.15690100
C        4.73644500      -0.60831800      -1.04176400
C        3.89809900      -2.85887100      -0.48154800
C        3.18939600      -1.75946600      -2.57012100
H        3.00424100      -3.47958100      -0.54381400
H        4.74073700      -3.33579200      -0.98664900
H        4.13759700      -2.65215900       0.56274200
H        4.42536700       0.34869400      -1.46185400
H        4.98795100      -0.48507500       0.01174200
H        5.58981000      -1.00657700      -1.59456700
H        2.97610900      -0.78427400      -3.00549300
H        4.00645300      -2.24818100      -3.10536100
H        2.28990900      -2.37383900      -2.58052000
61
4sa1ma2tma-29
S       -0.04688900      -2.67607400      -0.97369700
O        1.23709400      -3.19551400      -0.45482200
O        0.02041900      -2.22122100      -2.37172800
O       -0.37937700      -1.36093300      -0.08413600
O       -1.19531700      -3.53629000      -0.65923000
H       -0.01008200      -0.52499000      -0.47315800
H        2.58639100      -2.37685700      -0.22845100
S       -0.48811900       1.11504200      -2.51693400
O       -0.18137100       0.09669600      -3.68736400
O       -0.30134900       2.45174900      -3.04101800
O        0.49890800       0.77594000      -1.42141900
O       -1.86026100       0.81377600      -2.02183700
H        2.01747200       0.27257200      -1.55718500
H       -0.09767900      -0.81232100      -3.29629600
S       -2.18726600       1.28347400       1.50955800
O       -2.68308500       2.12257300       0.22625100
O       -0.75282600       0.97286100       1.25808400
O       -3.00055300       0.03760200       1.53153900
O       -2.40119600       2.17141600       2.64228400
H       -3.06542900      -0.94939000       0.13420500
H       -2.39301700       1.67550800      -0.60569300
S        3.31959200      -0.35728100       0.03585300
O        4.61789300       0.17979600       0.34654200
O        3.44457300      -1.91851900       0.03976300
O        2.17943600       0.05147500       0.86144800
O        2.97199200      -0.01886800      -1.46640500
H        0.65354300       2.05014900       0.24565500
H        0.00390100      -0.88061500       1.86199500
N       -3.13950100      -1.40140600      -0.80693900
H       -2.63448600      -2.30329200      -0.77439700
H       -2.61184500      -0.77209000      -1.43449600
C       -4.54720800      -1.53480800      -1.23479400
H       -5.07581800      -2.17790300      -0.53187500
H       -5.00675100      -0.54688900      -1.24216200
H       -4.58342500      -1.96869100      -2.23363600
N        1.04080800       2.99620600       0.41428500
C        2.23834500       3.18040900      -0.44640200
C       -0.02305100       3.97331000       0.05166700
C        1.37838800       3.06337100       1.85919800
H       -0.90260400       3.78683400       0.66552600
H        0.36101500       4.98009700       0.22820200
H       -0.26998300       3.83991800      -1.00269700
H        3.00976500       2.47240400      -0.14820300
H        1.94859000       3.01166100      -1.48318800
H        2.60355000       4.20096500      -0.31572300
H        2.10313800       2.27754000       2.07201000
H        1.79895900       4.04758100       2.07531700
H        0.46474500       2.89659400       2.42942600
N        0.05369400      -1.41171600       2.74994800
C        0.10114200      -0.41665000       3.85082200
C       -1.17559900      -2.24931200       2.80933900
C        1.27524000      -2.25949200       2.72880500
H       -1.15707700      -2.94838300       1.97212300
H       -1.17984100      -2.79076800       3.75759500
H       -2.04216900      -1.59332200       2.72353500
H        0.96355700       0.22909600       3.68789400
H       -0.80927400       0.18142000       3.83782700
H        0.19729200      -0.94897100       4.79936300
H        2.14920300      -1.61283200       2.68609800
H        1.28686300      -2.86777000       3.63557700
H        1.24600500      -2.89268400       1.84184200
61
4sa1ma2tma-43
S       -1.96698100      -0.40302100       2.01607600
O       -3.05265600      -0.25618000       1.01183200
O       -1.59797300      -1.82918300       2.16939700
O       -0.66393700       0.30960900       1.35145100
O       -2.13551100       0.35795100       3.24445800
H       -0.36442600       2.16567800       0.64977700
H       -0.36153300      -0.16589300       0.54191900
S        2.73428600       1.41419800      -0.71053200
O        1.93172300       1.02198600       0.45389000
O        3.59043300       2.56554100      -0.56927900
O        3.65040700       0.21615900      -1.14813200
O        1.78055600       1.60886000      -1.93428200
H        0.80001700       1.47877500      -1.70901700
H        3.14186200      -0.63407200      -1.32210000
S        0.98073600      -2.16121700      -1.45321600
O        0.39056500      -3.49311400      -1.62845800
O        0.59787900      -1.25630600      -2.69493700
O        0.40062300      -1.49283900      -0.24567800
O        2.45688400      -2.12169000      -1.42257000
H        1.46175100      -1.26997200       1.19223000
H       -2.14882000      -1.77217500      -0.99897700
S       -1.89776800       1.07136900      -2.01340900
O       -0.67898200       1.49820600      -1.24370000
O       -2.13666100       1.83238100      -3.21587100
O       -1.86518500      -0.41736800      -2.18758400
O       -3.12051400       1.37080000      -1.04119000
H       -3.09319300       0.77296800      -0.24155500
H       -0.35140100      -0.95882300      -2.61670600
N       -2.17902300      -2.68623100      -0.50943700
H       -1.90467100      -2.50279100       0.47393400
H       -1.44125900      -3.26650600      -0.93749200
C       -3.53187800      -3.27572600      -0.58782800
H       -4.22636000      -2.59288400      -0.09967400
H       -3.80692100      -3.40475700      -1.63410600
H       -3.53676300      -4.23893000      -0.07840200
N       -0.42002900       3.09859700       1.09129400
C       -1.87036000       3.37454500       1.27602300
C        0.29004700       3.01595200       2.39257500
C        0.21430000       4.07469900       0.16752700
H        1.32122400       2.72348900       2.19577000
H        0.24962900       3.99418100       2.87604600
H       -0.20695200       2.26328200       3.00526000
H       -2.36210000       3.31714800       0.30515100
H       -2.28446400       2.61930200       1.94572400
H       -1.98394300       4.36939400       1.71131800
H       -0.27034800       3.99205300      -0.80454400
H        0.09038100       5.07795100       0.57993900
H        1.27486000       3.83976100       0.07216100
N        1.98053900      -1.62297800       2.02160500
C        3.42241400      -1.65331400       1.66172000
C        1.71793900      -0.71389700       3.16602400
C        1.44696300      -2.98931600       2.26945700
H        0.65576000      -0.74325000       3.40468400
H        2.31152200      -1.04952900       4.01917300
H        2.00329800       0.29351000       2.86668000
H        3.53700000      -2.23460200       0.74662700
H        3.76019000      -0.63283900       1.48791900
H        3.97811700      -2.10725600       2.48480800
H        1.64072400      -3.60139500       1.38807400
H        1.95134500      -3.40968400       3.14203200
H        0.37296400      -2.90530200       2.43865900
