28
1fa1tma1dma-2
H       -3.06275000      -2.35033100      -0.49449700
H       -1.77341800       0.25471700      -0.49402500
C       -2.31333600      -1.59959600      -0.19755300
O       -2.50136700      -0.45508700      -0.80073100
O       -1.42789100      -1.85435200       0.60204800
N        1.81440500      -0.23897700      -0.08631100
C        1.58971000      -1.23739000      -1.12369300
H        0.63992900      -1.74396800      -0.93554000
H        1.54050500      -0.74931900      -2.10200700
H        2.39365200      -1.99488000      -1.15245800
C        3.04783000       0.49595400      -0.31353200
H        3.01413200       0.98414200      -1.29222400
H        3.16516000       1.26882500       0.45222400
H        3.93837400      -0.15860300      -0.28361900
C        1.79217700      -0.85327200       1.23648700
H        1.90721900      -0.07962300       2.00236600
H        0.83210700      -1.35459800       1.38358000
H        2.60472900      -1.59134100       1.36410100
N       -0.75416400       1.27437000      -0.00488500
C       -1.00730100       1.48542500       1.41958200
C       -0.74741400       2.51395800      -0.77586600
H        0.16050200       0.80511100      -0.09971600
H       -1.99646500       1.93450000       1.55579900
H       -0.99436700       0.51649900       1.92423100
H       -0.26035500       2.14619200       1.88287500
H       -1.73537200       2.98279200      -0.72958800
H       -0.00585200       3.23601800      -0.40369200
H       -0.52534700       2.29115900      -1.82252200
28
1fa1tma1dma-1
H       -3.30384800      -2.33281400       0.02439800
H       -1.12995100      -0.40768400      -0.03123300
C       -2.84740300      -1.33032600       0.01563100
O       -1.53627600      -1.38882000      -0.02173700
O       -3.51487800      -0.31346300       0.03886300
N        2.20952400      -0.14740700      -0.01380800
C        1.97931700      -1.08719400      -1.10362100
H        0.97481100      -1.51165900      -1.01888400
H        2.05752900      -0.56645800      -2.06270400
H        2.70970500      -1.91647900      -1.09983800
C        3.51786700       0.47803200      -0.11976900
H        3.60581900       0.99343000      -1.08045700
H        3.64230200       1.21612900       0.67799000
H        4.34052700      -0.25685600      -0.04484300
C        2.03656600      -0.79985500       1.27713500
H        2.15707700      -0.06620200       2.08010200
H        1.03106300      -1.22627000       1.34254700
H        2.76894000      -1.61192500       1.43643300
N       -0.54440600       0.99496900      -0.04000300
C       -0.96054700       1.65251700       1.19676000
C       -1.03409900       1.67476600      -1.23712300
H        0.47734300       0.89731300      -0.06981800
H       -2.04899100       1.58458600       1.28540300
H       -0.51123300       1.13582800       2.04913100
H       -0.66468400       2.71076000       1.22891200
H       -2.12593100       1.60797900      -1.26057300
H       -0.74023300       2.73367900      -1.26678400
H       -0.63703900       1.17433100      -2.12418600
28
1fa1tma1dma-3
H       -3.79793600       2.05006400       0.00447800
H       -1.34674700       0.51594000      -0.17265900
C       -3.18298900       1.13585100       0.00912900
O       -1.91252800       1.40434900      -0.18259600
O       -3.66410800       0.03083100       0.17591300
N        2.29132200       0.21068800      -0.03570500
C        2.96859100      -0.43940300       1.07575500
H        2.31658000      -0.44312100       1.95423200
H        3.19697100      -1.47732100       0.81627600
H        3.91238600       0.06779900       1.34697400
C        3.10822300       0.18634700      -1.23912400
H        3.33938300      -0.84872900      -1.50719600
H        2.55975700       0.64172800      -2.06847300
H        4.06078600       0.73242500      -1.11169700
C        1.89129900       1.56853100       0.30912900
H        1.34407400       2.01644200      -0.52444500
H        1.22110300       1.54845900       1.17346700
H        2.75648000       2.21179000       0.55089400
N       -0.53641200      -0.79911000      -0.12969900
C       -1.00987700      -1.66497700      -1.20746800
C       -0.74794500      -1.38359700       1.19331300
H        0.46230100      -0.58752200      -0.24606300
H       -2.09318900      -1.78571700      -1.11434700
H       -0.79639200      -1.19489700      -2.17093000
H       -0.53777900      -2.65789200      -1.18480800
H       -1.82200900      -1.50277500       1.36287700
H       -0.25733200      -2.36163000       1.30396600
H       -0.35353300      -0.70404100       1.95433400
