22
1msa1fa2am-2
S        1.32818500      -0.48962400      -0.10951500
O        0.89069500      -0.28658200      -1.51869500
O        0.15579500      -0.38693700       0.82629900
O        2.43109500       0.38604000       0.31400500
C        1.90984400      -2.17141500      -0.00677100
H        1.09929700      -2.83756700      -0.30342000
H        2.75902100      -2.27342800      -0.68272700
H        2.21136300      -2.36027700       1.02360700
H       -4.06736900      -1.33601700       0.27838900
H       -1.23048700      -1.05207900       0.68137500
C       -3.10723500      -0.80673800       0.22394600
O       -2.12962400      -1.52778600       0.69129400
O       -3.03281000       0.32626700      -0.23148500
N       -0.83914600       1.81090800      -1.11728900
H       -1.12460100       2.46029600      -1.84350500
H       -1.66389900       1.31083000      -0.73091200
H       -0.19036000       1.08048200      -1.49053700
H       -0.32011700       2.30737500      -0.33169000
N        0.71149200       2.76421400       1.01448400
H        1.53316700       2.17418500       0.85493100
H        0.27637000       2.40414700       1.85930500
H        1.02336200       3.71108300       1.20266900
22
1msa1fa2am-1
S       -1.40161700      -0.32191700       0.03907400
O       -1.17417200       0.29127900      -1.28445800
O       -1.56833500       0.67742700       1.13156800
O       -0.35940800      -1.33098500       0.40006200
C       -2.93649100      -1.22218700      -0.04811100
H       -3.72987600      -0.51259600      -0.28313600
H       -2.84350900      -1.97207800      -0.83381000
H       -3.10992000      -1.69312900       0.91926900
H        3.85949500      -1.54983700      -0.65472700
H        1.01263000      -1.60892500      -0.26811400
C        2.90610700      -1.17956400      -0.25511400
O        1.90440800      -1.90815900      -0.64808500
O        2.86314300      -0.19187800       0.46677600
N        0.97130000       1.66304600       1.31805600
H        1.31503200       2.19435800       2.11156800
H        0.88443700       2.26107200       0.44525400
H        1.61624100       0.87689800       1.10099200
H        0.00968100       1.28591800       1.48948200
N        0.39268800       2.82194600      -1.15832200
H       -0.18452300       3.65556200      -1.20381400
H       -0.20194500       2.02106300      -1.39995600
H        1.10744200       2.90646000      -1.87388300
22
1msa1fa2am-4
S       -1.38371700      -0.38475500       0.17424000
O       -1.49412700       0.75286000       1.13200500
O       -1.18491700      -1.69672900       0.78465700
O       -0.33345000      -0.06524500      -0.86840100
H        0.93677900      -1.00415800      -0.93703900
C       -2.92864200      -0.41805400      -0.71699500
H       -3.08160300       0.55009300      -1.19368800
H       -2.87186300      -1.21351900      -1.46015700
H       -3.72120200      -0.62205500       0.00339200
H        3.52240800      -2.05696200      -0.27155100
H        1.64930800       0.85056900       1.12987000
C        2.68499900      -1.35400500      -0.17588200
O        2.69722100      -0.46538300       0.66557600
O        1.75006800      -1.59650000      -1.04707400
N        1.05232000       1.68029400       1.32703500
H        1.39413000       2.18615400       2.13769400
H        0.06424200       1.35044300       1.45847500
H        1.03813200       2.27543700       0.45764600
N        0.62446300       2.73255400      -1.23731100
H       -0.07031500       3.45903700      -1.37537200
H        0.17572700       1.82764200      -1.40753400
H        1.34975100       2.86379600      -1.93446700
