20
1sa1fa2am-2
S       -1.32162200      -0.53982000       0.12076000
O       -2.48149100       0.16740900      -0.42463100
O       -0.12498700      -0.39113600      -0.75666700
O       -0.99627700      -0.26815800       1.52948300
O       -1.69927000      -2.11720400       0.12091000
H       -2.25472500      -2.28574800      -0.65215900
H        4.14814100      -1.16664600      -0.31603000
H        1.30312300      -1.06973600      -0.65165100
C        3.15654400      -0.70416200      -0.23439000
O        2.22149800      -1.48395500      -0.69570600
O        3.01209300       0.41389700       0.24084600
N        0.77260000       1.81901300       1.11523400
H        0.14147200       1.09498100       1.51704900
H        1.05723000       2.49187900       1.82027900
H        1.60229400       1.32348900       0.72948500
H        0.23293400       2.28406700       0.32560100
N       -0.82062700       2.68940600      -1.03210700
H       -1.15057700       3.63048300      -1.21946300
H       -1.63465100       2.08353800      -0.90545200
H       -0.35489600       2.35002500      -1.86926300
20
1sa1fa2am-1
S       -1.32335700      -0.47634900       0.02974600
O       -1.08356100       0.21267200      -1.23509100
O       -0.31737800      -1.51360800       0.36529900
O       -1.57111000       0.41952600       1.18363100
O       -2.71014900      -1.27475200      -0.21937800
H       -2.90723700      -1.79398400       0.57208100
H        3.95201700      -1.22321200      -0.64292600
H        1.14744700      -1.65843800      -0.23688800
C        2.95510300      -0.96218300      -0.26542300
O        2.07187100      -1.86284700      -0.58045900
O        2.76705600       0.06794300       0.36741300
N        0.79524600       1.79147300       1.29898500
H        1.12062600       2.33079900       2.09499600
H        0.59334700       2.40739200       0.45518000
H        1.50691400       1.08513900       1.02454300
H       -0.10030300       1.29705500       1.50799300
N       -0.01954900       2.99101200      -1.08171000
H        0.65579100       3.21707200      -1.80495200
H       -0.71024300       3.73465900      -1.06544300
H       -0.49898400       2.12935400      -1.36022100
20
1sa1fa2am-3
S       -1.30880700      -0.67670300       0.16058200
O       -1.75731000      -2.05420000       0.08825000
O       -1.19293100      -0.10724000       1.51984300
O       -0.12250100      -0.31979200      -0.66376400
O       -2.47101900       0.22235500      -0.58527300
H       -3.31224800      -0.23525500      -0.45703000
H        4.13947900      -1.22427400      -0.34108000
H        1.30949300      -1.05893600      -0.71729500
C        3.15081500      -0.76313200      -0.22532100
O        2.22157100      -1.46589000      -0.81012400
O        3.00180800       0.28497300       0.38634600
N        0.77667500       1.77467800       1.19998100
H        0.35757900       2.27030400       0.36380400
H        0.04707700       1.10184600       1.52782600
H        1.59797900       1.22084100       0.88548000
H        1.04163300       2.42457100       1.93335300
N       -0.54148500       2.61341500      -1.13581900
H       -0.44381800       3.44094600      -1.71414400
H       -1.53192800       2.46792900      -0.95362900
H       -0.25249400       1.79976500      -1.67602600
