56
4sa2am2dma-28
S       -0.99210200       2.75180700      -0.80689700
O       -1.67252900       3.01461900       0.47576300
O       -0.38107200       3.89338400      -1.46018500
O       -0.04186900       1.58946600      -0.68422500
O       -2.12550900       2.24960500      -1.83677200
H       -2.56195800       1.45397500      -1.46614100
H       -0.21371400       0.62720000       0.48461800
S        2.82790100      -1.83097600      -0.62651600
O        1.84798300      -2.94626600      -0.57696600
O        4.02709700      -2.07634200      -1.39638000
O        2.10037300      -0.56851500      -1.01446900
O        3.33499900      -1.57330300       0.87212900
H        2.58182600      -1.38664400       1.49293700
H        0.58224000      -0.74786400      -1.73353300
S       -3.26420300      -1.29298900      -0.10485500
O       -2.42613200      -2.49824800       0.03122000
O       -3.77144800      -0.77124200       1.17171900
O       -2.66982000      -0.27638200      -0.99509800
O       -4.56698500      -1.75160700      -0.95201700
H       -5.09514000      -2.34845200      -0.40389500
S        0.58500300       0.17956600       2.48884800
O       -0.38612600      -0.04158900       1.22934100
O        1.46563100       1.31168600       2.18063500
O       -0.32320800       0.38427400       3.62657400
O        1.32344800      -1.11654300       2.59279800
N       -2.62787600       1.42461800       2.47798700
H       -1.82454800       1.09189200       3.05110500
H       -3.29566400       1.93605900       3.04733700
H       -2.26068900       2.03946100       1.71573200
H       -3.08016100       0.60231800       2.03715900
N       -0.05908400      -3.13624100       1.34028500
H        0.31737400      -2.45747200       2.03128900
H        0.64557700      -3.15335600       0.56280400
H       -0.16104200      -4.05868900       1.75296400
H       -0.96951900      -2.80364200       0.97025600
N       -0.25236900      -0.81474000      -2.35972500
H       -1.06691200      -0.49134500      -1.81369700
C       -0.02399100       0.09127500      -3.50766900
H        0.16288200       1.09140900      -3.12150800
H        0.84038400      -0.26833800      -4.06768800
H       -0.91110900       0.09895400      -4.14199000
C       -0.47512700      -2.22603200      -2.74641100
H        0.44311000      -2.62769600      -3.17502100
H       -0.74659000      -2.79100200      -1.85668300
H       -1.29073000      -2.26981000      -3.46996100
C        4.19551800       1.63464600       0.48092600
N        2.87143200       1.90159100      -0.12767800
C        2.83927400       3.08460900      -1.01502600
H        2.57270500       1.04127700      -0.63344700
H        4.48551200       2.48901700       1.09352100
H        4.12105300       0.73694000       1.09279800
H        4.92373100       1.47359500      -0.31520400
H        3.15841100       3.96061900      -0.44826000
H        3.52446000       2.91562700      -1.84725100
H        1.82263100       3.23668700      -1.37702700
H        2.17286600       1.97317300       0.62997000
56
4sa2am2dma-31
S       -1.04662100       2.64399300      -1.02210300
O       -1.81242300       3.07760000       0.16157200
O       -0.34125300       3.68249800      -1.74806600
O       -0.13914200       1.48607400      -0.68235000
O       -2.10350300       2.03110400      -2.06522800
H       -2.54044600       1.25570600      -1.65075400
H       -0.20762600       0.43633500       0.54062400
S        2.91120600      -1.73610900      -0.64207900
O        1.88589200      -2.78437100      -0.37809800
O        3.98139900      -2.14889700      -1.52559300
O        2.22473000      -0.46368600      -1.03994100
O        3.61499700      -1.40667400       0.76241100
H        2.99951000      -0.88556500       1.33083700
H        0.72400700      -0.78512300      -1.72322400
S       -3.14665100      -1.39753600      -0.04858200
O       -2.33568600      -2.61993300       0.07727600
O       -3.58533200      -0.83661200       1.23849900
O       -2.56631200      -0.40577800      -0.97655100
O       -4.49427300      -1.83392800      -0.83544300
H       -4.97766000      -2.46922200      -0.28914600
S        0.63505700       0.09933400       2.54576600
O        0.48941500      -1.10606300       3.36850400
O        0.03809400       1.32664600       3.10287300
O        2.02751800       0.32972400       2.07990000
O       -0.23846400      -0.27533600       1.24171700
N       -2.58250000       1.54871900       2.27538100
H       -3.27543400       1.99592600       2.86835500
H       -1.67915500       1.43342200       2.77971500
H       -2.93157600       0.62614500       1.94868300
H       -2.37783400       2.14541200       1.44132000
N        0.01856500      -3.15066200       1.52025200
H        0.02263600      -4.12218300       1.81671200
H        0.17328000      -2.51828600       2.32874100
H        0.78515600      -2.98581500       0.81648900
H       -0.88757700      -2.91209400       1.07869000
N       -0.11309900      -0.92028600      -2.34114600
H       -0.93523200      -0.60102800      -1.80708900
C        0.08163100      -0.06677700      -3.53413000
H        0.23286000       0.96001500      -3.20654200
H        0.96042600      -0.42228600      -4.07374500
H       -0.80367500      -0.12374700      -4.16849500
C       -0.28505800      -2.35601700      -2.65733300
H        0.64251100      -2.74050000      -3.08182300
H       -0.51559700      -2.88808800      -1.73694800
H       -1.10861900      -2.46558800      -3.36491000
C        3.62465800       2.30944100      -0.83947400
N        2.43063000       2.18573300       0.02365100
C        2.05594100       3.41693300       0.75837300
H        1.60987500       1.88041500      -0.52957700
H        4.48601700       2.56646000      -0.22166700
H        3.78240700       1.35101600      -1.33260100
H        3.44487500       3.09525400      -1.57446200
H        2.90921300       3.75175500       1.34940700
H        1.75673400       4.18113400       0.04023500
H        1.22192000       3.18035400       1.42052600
H        2.53768800       1.42030800       0.70917100
56
4sa2am2dma-40
S       -1.03192200       2.55564600      -0.74693200
O       -1.71534500       2.81171400       0.53466400
O       -0.52488900       3.70588300      -1.47216500
O        0.02751800       1.49442600      -0.59728500
O       -2.12936400       1.88978000      -1.72260300
H       -2.76606200       1.35295900      -1.19023600
H       -0.06410500       0.60092000       0.58944500
S        2.58290600      -1.89932700      -0.71218300
O        1.37964200      -2.75005600      -0.54057000
O        3.66077700      -2.47923900      -1.48328700
O        2.16103000      -0.53835900      -1.20453100
O        3.19784000      -1.64207500       0.74761300
H        2.50530300      -1.47647400       1.43944900
H       -0.94636300      -0.36023700      -2.15710200
S       -3.21708500      -1.13676800      -0.14438300
O       -2.96930500      -1.51664900       1.27274000
O       -3.68675300       0.26038500      -0.23986200
O       -2.12962600      -1.50206500      -1.04803300
O       -4.44309600      -2.06301600      -0.65155700
H       -5.24967800      -1.79461900      -0.19030300
S        0.72852000       0.15186300       2.62739500
O       -0.18071800       0.38787900       3.75967500
O        1.41579800      -1.17053800       2.72282100
O       -0.23926500      -0.03814500       1.36573800
O        1.64608500       1.25928300       2.32733100
N       -2.56281800       1.09728700       2.53026300
H       -1.74146700       0.96027700       3.15525600
H       -3.35060100       1.50187700       3.02746100
H       -2.28054500       1.72084500       1.73996300
H       -2.81290500       0.17333600       2.14304800
N       -0.43223300      -2.86885700       1.47370800
H       -1.33374800      -2.36470900       1.40030500
H        0.11965900      -2.77170200       0.59024200
H        0.15787500      -2.42224800       2.19837000
H       -0.58618800      -3.85156000       1.67966500
N       -0.09980500      -0.49139200      -2.72442900
H        0.69959400      -0.44451100      -2.05175700
C       -0.12896800      -1.84835700      -3.31739600
H       -0.21405600      -2.57262200      -2.50995700
H       -0.98164100      -1.92627400      -3.99286800
H        0.80435500      -2.01163400      -3.85818300
C        0.04490900       0.59302800      -3.71954000
H       -0.82214300       0.59412800      -4.38062600
H        0.10889400       1.54674200      -3.19972700
H        0.95593100       0.41401800      -4.29249100
C        4.33470400       1.48100300       0.42908500
N        2.96197200       1.79373900      -0.03057700
C        2.84403200       3.06089900      -0.78369400
H        2.62225300       0.98655800      -0.59610700
H        4.66969600       2.26155600       1.11323000
H        4.31630500       0.51535700       0.93344000
H        4.99524300       1.42855300      -0.43760100
H        3.18261800       3.88254400      -0.15060200
H        3.47259900       3.00054800      -1.67379000
H        1.80282200       3.21544800      -1.06604700
H        2.33713600       1.78975300       0.79616500
