1pa_3sa.log
 OpenBabel02281910203D
Gaussian opt/gaussian/g09/g09 # opt freq wb97xd/6-31++G(d,p)
 48 45  0  0  1  0  0  0  0  0999 V2000
   -1.8846    2.8009   -0.0017 S   0  0  0  0  0  0  0  0  0  0  0  0
   -1.0838    1.9275    1.0460 O   0  0  0  0  0  0  0  0  0  0  0  0
   -1.2390    4.0991    0.0404 O   0  0  0  0  0  0  0  0  0  0  0  0
   -1.6019    2.1131   -1.3770 O   0  0  0  0  0  0  0  0  0  0  0  0
   -3.3115    2.6760    0.2357 O   0  0  0  0  0  0  0  0  0  0  0  0
   -0.4630   -2.9459   -0.2249 S   0  0  0  0  0  0  0  0  0  0  0  0
    0.3712   -3.6951   -1.3075 O   0  0  0  0  0  0  0  0  0  0  0  0
   -1.7995   -3.7572   -0.3816 O   0  0  0  0  0  0  0  0  0  0  0  0
    0.1246   -3.1555    1.0885 O   0  0  0  0  0  0  0  0  0  0  0  0
   -0.6700   -1.5549   -0.6158 O   0  0  0  0  0  0  0  0  0  0  0  0
    3.4196    1.1533    0.6733 C   0  0  0  0  0  0  0  0  0  0  0  0
    3.1519    1.9210   -0.6760 C   0  0  1  0  0  0  0  0  0  0  0  0
    3.5129    0.6416   -1.4497 C   0  0  0  0  0  0  0  0  0  0  0  0
    4.2717    0.1698   -0.1916 C   0  0  2  0  0  0  0  0  0  0  0  0
    3.8957    2.7147   -0.7993 H   0  0  0  0  0  0  0  0  0  0  0  0
    4.0850    0.7553   -2.3725 H   0  0  0  0  0  0  0  0  0  0  0  0
    2.6221    0.0448   -1.6565 H   0  0  0  0  0  0  0  0  0  0  0  0
    5.2882    0.5800   -0.2305 H   0  0  0  0  0  0  0  0  0  0  0  0
    2.1383    0.5513    1.2522 C   0  0  0  0  0  0  0  0  0  0  0  0
    2.3729   -0.1305    2.0735 H   0  0  0  0  0  0  0  0  0  0  0  0
    1.4973    1.3442    1.6499 H   0  0  0  0  0  0  0  0  0  0  0  0
    1.5508    0.0025    0.5084 H   0  0  0  0  0  0  0  0  0  0  0  0
    4.1729    1.9294    1.7438 C   0  0  0  0  0  0  0  0  0  0  0  0
    3.5476    2.7293    2.1529 H   0  0  0  0  0  0  0  0  0  0  0  0
    4.4574    1.2669    2.5690 H   0  0  0  0  0  0  0  0  0  0  0  0
    5.0845    2.3823    1.3401 H   0  0  0  0  0  0  0  0  0  0  0  0
    1.7892    2.5109   -0.8476 C   0  0  0  0  0  0  0  0  0  0  0  0
    1.5855    3.5767   -0.0925 O   0  0  0  0  0  0  0  0  0  0  0  0
    0.9381    2.0261   -1.5872 O   0  0  0  0  0  0  0  0  0  0  0  0
    0.6546    3.8841   -0.1360 H   0  0  0  0  0  0  0  0  0  0  0  0
    4.4513   -1.3165    0.1589 C   0  0  0  0  0  0  0  0  0  0  0  0
    5.1261   -1.7547   -0.5837 H   0  0  0  0  0  0  0  0  0  0  0  0
    4.9194   -1.4036    1.1427 H   0  0  0  0  0  0  0  0  0  0  0  0
    3.2013   -2.1517    0.1414 C   0  0  0  0  0  0  0  0  0  0  0  0
    2.6120   -2.4368   -0.8993 O   0  0  0  0  0  0  0  0  0  0  0  0
    2.8086   -2.5548    1.3343 O   0  0  0  0  0  0  0  0  0  0  0  0
    1.9098   -2.9492    1.2951 H   0  0  0  0  0  0  0  0  0  0  0  0
   -0.6024    2.1278   -1.5538 H   0  0  0  0  0  0  0  0  0  0  0  0
   -1.5549    1.0691    1.2118 H   0  0  0  0  0  0  0  0  0  0  0  0
    1.3050   -3.3117   -1.2407 H   0  0  0  0  0  0  0  0  0  0  0  0
   -2.5706   -3.2612   -0.0128 H   0  0  0  0  0  0  0  0  0  0  0  0
   -3.5114   -0.6919    0.3582 S   0  0  0  0  0  0  0  0  0  0  0  0
   -2.9750   -0.3711   -1.0864 O   0  0  0  0  0  0  0  0  0  0  0  0
   -4.7723    0.2345    0.3749 O   0  0  0  0  0  0  0  0  0  0  0  0
   -2.0507   -0.7183   -1.1571 H   0  0  0  0  0  0  0  0  0  0  0  0
   -4.4634    1.1727    0.3319 H   0  0  0  0  0  0  0  0  0  0  0  0
   -3.9403   -2.0742    0.4364 O   0  0  0  0  0  0  0  0  0  0  0  0
   -2.5451   -0.2543    1.3576 O   0  0  0  0  0  0  0  0  0  0  0  0
  1  3  2  0  0  0  0
  1  5  2  0  0  0  0
  1  2  1  0  0  0  0
  2 39  1  0  0  0  0
  4  1  1  0  0  0  0
  6  9  2  0  0  0  0
  7 40  1  0  0  0  0
  7  6  1  0  0  0  0
  8  6  1  0  0  0  0
  8 41  1  0  0  0  0
 10  6  2  0  0  0  0
 11 19  1  0  0  0  0
 11 23  1  0  0  0  0
 12 15  1  6  0  0  0
 12 11  1  0  0  0  0
 13 12  1  0  0  0  0
 13 14  1  0  0  0  0
 14 18  1  6  0  0  0
 14 31  1  0  0  0  0
 14 11  1  0  0  0  0
 16 13  1  0  0  0  0
 17 13  1  0  0  0  0
 19 21  1  0  0  0  0
 19 20  1  0  0  0  0
 22 19  1  0  0  0  0
 23 24  1  0  0  0  0
 23 25  1  0  0  0  0
 26 23  1  0  0  0  0
 27 12  1  0  0  0  0
 27 28  1  0  0  0  0
 29 27  2  0  0  0  0
 30 28  1  0  0  0  0
 31 33  1  0  0  0  0
 32 31  1  0  0  0  0
 34 31  1  0  0  0  0
 34 36  1  0  0  0  0
 35 34  2  0  0  0  0
 37 36  1  0  0  0  0
 38  4  1  0  0  0  0
 42 44  1  0  0  0  0
 42 47  2  0  0  0  0
 42 48  2  0  0  0  0
 43 42  1  0  0  0  0
 45 43  1  0  0  0  0
 46 44  1  0  0  0  0
M  END
$$$$
