1sa_2tma.log
 OpenBabel02271919113D
Gaussian users/kemi/kmacke/programs/G09D/g09/g09 # opt freq 6-31++g(d,p) wb97xd
 33 30  0  0  0  0  0  0  0  0999 V2000
    0.0384   -0.7382   -0.0117 S   0  0  0  0  0  0  0  0  0  0  0  0
   -0.8042   -1.4175   -0.9948 O   0  0  0  0  0  0  0  0  0  0  0  0
   -0.9153   -0.1665    1.1271 O   0  0  0  0  0  0  0  0  0  0  0  0
    0.7142    0.4825   -0.6101 O   0  0  0  0  0  0  0  0  0  0  0  0
   -1.8252    0.0909    0.7164 H   0  0  0  0  0  0  0  0  0  0  0  0
    1.0366   -1.5592    0.6888 O   0  0  0  0  0  0  0  0  0  0  0  0
    2.1124    0.4682   -0.2686 H   0  0  0  0  0  0  0  0  0  0  0  0
    3.1951    0.4652   -0.0315 N   0  0  0  0  0  0  0  0  0  0  0  0
    3.3120    0.4460    1.4443 C   0  0  0  0  0  0  0  0  0  0  0  0
    3.7658    1.6914   -0.6214 C   0  0  0  0  0  0  0  0  0  0  0  0
    3.7582   -0.7620   -0.6389 C   0  0  0  0  0  0  0  0  0  0  0  0
    3.2684    2.5584   -0.1849 H   0  0  0  0  0  0  0  0  0  0  0  0
    3.5873    1.6819   -1.6974 H   0  0  0  0  0  0  0  0  0  0  0  0
    4.8400    1.7390   -0.4218 H   0  0  0  0  0  0  0  0  0  0  0  0
    2.8355    1.3420    1.8445 H   0  0  0  0  0  0  0  0  0  0  0  0
    4.3680    0.4225    1.7290 H   0  0  0  0  0  0  0  0  0  0  0  0
    2.7818   -0.4342    1.8090 H   0  0  0  0  0  0  0  0  0  0  0  0
    4.8311   -0.8170   -0.4328 H   0  0  0  0  0  0  0  0  0  0  0  0
    3.5839   -0.7291   -1.7153 H   0  0  0  0  0  0  0  0  0  0  0  0
    3.2293   -1.6169   -0.2169 H   0  0  0  0  0  0  0  0  0  0  0  0
   -3.2511    0.4330    0.0641 N   0  0  0  0  0  0  0  0  0  0  0  0
   -2.9866    1.0821   -1.2205 C   0  0  0  0  0  0  0  0  0  0  0  0
   -4.0239    1.2979    0.9490 C   0  0  0  0  0  0  0  0  0  0  0  0
   -3.9080   -0.8605   -0.1284 C   0  0  0  0  0  0  0  0  0  0  0  0
   -3.4870    2.2374    1.1052 H   0  0  0  0  0  0  0  0  0  0  0  0
   -4.1550    0.8087    1.9179 H   0  0  0  0  0  0  0  0  0  0  0  0
   -5.0185    1.5253    0.5306 H   0  0  0  0  0  0  0  0  0  0  0  0
   -2.4433    2.0154   -1.0508 H   0  0  0  0  0  0  0  0  0  0  0  0
   -3.9228    1.3053   -1.7582 H   0  0  0  0  0  0  0  0  0  0  0  0
   -2.3614    0.4248   -1.8283 H   0  0  0  0  0  0  0  0  0  0  0  0
   -4.8896   -0.7452   -0.6168 H   0  0  0  0  0  0  0  0  0  0  0  0
   -4.0506   -1.3422    0.8426 H   0  0  0  0  0  0  0  0  0  0  0  0
   -3.2623   -1.4956   -0.7379 H   0  0  0  0  0  0  0  0  0  0  0  0
  1  6  1  0  0  0  0
  1  3  1  0  0  0  0
  2  1  2  0  0  0  0
  4  1  2  0  0  0  0
  5  3  1  0  0  0  0
  7  8  1  0  0  0  0
  8  9  1  0  0  0  0
  9 16  1  0  0  0  0
  9 17  1  0  0  0  0
  9 15  1  0  0  0  0
 10 14  1  0  0  0  0
 10 12  1  0  0  0  0
 10  8  1  0  0  0  0
 11 18  1  0  0  0  0
 11 20  1  0  0  0  0
 11  8  1  0  0  0  0
 13 10  1  0  0  0  0
 19 11  1  0  0  0  0
 21 23  1  0  0  0  0
 22 28  1  0  0  0  0
 22 21  1  0  0  0  0
 23 25  1  0  0  0  0
 23 26  1  0  0  0  0
 24 21  1  0  0  0  0
 24 32  1  0  0  0  0
 27 23  1  0  0  0  0
 29 22  1  0  0  0  0
 30 22  1  0  0  0  0
 31 24  1  0  0  0  0
 33 24  1  0  0  0  0
M  RAD  1   6   2
M  END
$$$$
