2sa_1tma.log
 OpenBabel02271919113D
Gaussian users/kemi/kmacke/programs/G09D/g09/g09 # opt freq 6-31++g(d,p) wb97xd
 27 24  0  0  0  0  0  0  0  0999 V2000
   -2.3575   -0.2367   -0.0168 S   0  0  0  0  0  0  0  0  0  0  0  0
   -1.8749    0.2391    1.4177 O   0  0  0  0  0  0  0  0  0  0  0  0
   -1.3052   -1.0834   -0.5740 O   0  0  0  0  0  0  0  0  0  0  0  0
   -2.4266    1.0987   -0.8534 O   0  0  0  0  0  0  0  0  0  0  0  0
   -3.6938   -0.7391    0.1133 O   0  0  0  0  0  0  0  0  0  0  0  0
   -0.9032    0.4534    1.3794 H   0  0  0  0  0  0  0  0  0  0  0  0
   -1.5245    1.5153   -0.9200 H   0  0  0  0  0  0  0  0  0  0  0  0
    1.1493    1.5910   -0.0541 S   0  0  0  0  0  0  0  0  0  0  0  0
    1.7438    2.7862    0.8603 O   0  0  0  0  0  0  0  0  0  0  0  0
    0.7197    0.6075    0.9852 O   0  0  0  0  0  0  0  0  0  0  0  0
    2.2343    1.0740   -0.8840 O   0  0  0  0  0  0  0  0  0  0  0  0
    0.0186    2.1746   -0.7950 O   0  0  0  0  0  0  0  0  0  0  0  0
    1.8704    3.5647    0.2999 H   0  0  0  0  0  0  0  0  0  0  0  0
    0.9496   -1.0294    0.2576 H   0  0  0  0  0  0  0  0  0  0  0  0
    1.4505   -1.9101    0.0209 N   0  0  0  0  0  0  0  0  0  0  0  0
    1.4642   -2.0362   -1.4622 C   0  0  0  0  0  0  0  0  0  0  0  0
    0.7149   -3.0263    0.6682 C   0  0  0  0  0  0  0  0  0  0  0  0
    2.8235   -1.7536    0.5690 C   0  0  0  0  0  0  0  0  0  0  0  0
   -0.2981   -3.0445    0.2690 H   0  0  0  0  0  0  0  0  0  0  0  0
    0.6827   -2.8471    1.7433 H   0  0  0  0  0  0  0  0  0  0  0  0
    1.2371   -3.9621    0.4590 H   0  0  0  0  0  0  0  0  0  0  0  0
    0.4343   -2.0957   -1.8101 H   0  0  0  0  0  0  0  0  0  0  0  0
    2.0200   -2.9376   -1.7293 H   0  0  0  0  0  0  0  0  0  0  0  0
    1.9421   -1.1459   -1.8711 H   0  0  0  0  0  0  0  0  0  0  0  0
    3.3949   -2.6586    0.3535 H   0  0  0  0  0  0  0  0  0  0  0  0
    2.7521   -1.5956    1.6451 H   0  0  0  0  0  0  0  0  0  0  0  0
    3.2779   -0.8802    0.1016 H   0  0  0  0  0  0  0  0  0  0  0  0
  1  5  2  0  0  0  0
  1  2  1  0  0  0  0
  3  1  2  0  0  0  0
  4  1  1  0  0  0  0
  6  2  1  0  0  0  0
  7  4  1  0  0  0  0
  8  9  1  0  0  0  0
  8 10  1  0  0  0  0
 11  8  2  0  0  0  0
 12  8  2  0  0  0  0
 13  9  1  0  0  0  0
 15 14  1  0  0  0  0
 15 18  1  0  0  0  0
 15 17  1  0  0  0  0
 16 15  1  0  0  0  0
 17 20  1  0  0  0  0
 18 26  1  0  0  0  0
 19 17  1  0  0  0  0
 21 17  1  0  0  0  0
 22 16  1  0  0  0  0
 23 16  1  0  0  0  0
 24 16  1  0  0  0  0
 25 18  1  0  0  0  0
 27 18  1  0  0  0  0
M  RAD  1  10   2
M  END
$$$$
