3sa_1tma.log
 OpenBabel02271919113D
Gaussian users/kemi/kmacke/programs/G09D/g09/g09 # opt freq 6-31++g(d,p) wb97xd
 34 30  0  0  0  0  0  0  0  0999 V2000
    0.4448   -0.2404    1.2073 S   0  0  0  0  0  0  0  0  0  0  0  0
    0.5309    0.7975    0.1366 O   0  0  0  0  0  0  0  0  0  0  0  0
    1.6253   -0.2409    2.0703 O   0  0  0  0  0  0  0  0  0  0  0  0
    0.4350   -1.6591    0.4243 O   0  0  0  0  0  0  0  0  0  0  0  0
   -0.8482   -0.2110    1.8976 O   0  0  0  0  0  0  0  0  0  0  0  0
   -1.1221    1.5919   -0.2738 H   0  0  0  0  0  0  0  0  0  0  0  0
    1.3056   -1.7408   -0.0472 H   0  0  0  0  0  0  0  0  0  0  0  0
    3.7426   -0.2714   -0.6305 S   0  0  0  0  0  0  0  0  0  0  0  0
    4.0717   -0.0360    0.8982 O   0  0  0  0  0  0  0  0  0  0  0  0
    4.9763   -0.2623   -1.3523 O   0  0  0  0  0  0  0  0  0  0  0  0
    2.9276    1.0252   -1.0441 O   0  0  0  0  0  0  0  0  0  0  0  0
    2.8348   -1.4157   -0.7310 O   0  0  0  0  0  0  0  0  0  0  0  0
    3.2497   -0.1397    1.4413 H   0  0  0  0  0  0  0  0  0  0  0  0
    2.0133    0.9804   -0.6576 H   0  0  0  0  0  0  0  0  0  0  0  0
   -1.6370    2.4912   -0.2179 N   0  0  0  0  0  0  0  0  0  0  0  0
   -2.2078    2.7771   -1.5610 C   0  0  0  0  0  0  0  0  0  0  0  0
   -0.6405    3.5167    0.1883 C   0  0  0  0  0  0  0  0  0  0  0  0
   -2.6979    2.3289    0.8129 C   0  0  0  0  0  0  0  0  0  0  0  0
    0.1529    3.5530   -0.5574 H   0  0  0  0  0  0  0  0  0  0  0  0
   -0.2161    3.2318    1.1498 H   0  0  0  0  0  0  0  0  0  0  0  0
   -1.1394    4.4849    0.2599 H   0  0  0  0  0  0  0  0  0  0  0  0
   -1.3927    2.8358   -2.2824 H   0  0  0  0  0  0  0  0  0  0  0  0
   -2.7431    3.7277   -1.5194 H   0  0  0  0  0  0  0  0  0  0  0  0
   -2.8755    1.9611   -1.8312 H   0  0  0  0  0  0  0  0  0  0  0  0
   -3.1964    3.2895    0.9557 H   0  0  0  0  0  0  0  0  0  0  0  0
   -2.2307    1.9925    1.7384 H   0  0  0  0  0  0  0  0  0  0  0  0
   -3.4041    1.5763    0.4679 H   0  0  0  0  0  0  0  0  0  0  0  0
   -2.9492   -1.3963   -0.5372 S   0  0  0  0  0  0  0  0  0  0  0  0
   -2.3002   -0.1765   -1.0078 O   0  0  0  0  0  0  0  0  0  0  0  0
   -1.9210   -2.5900   -0.6794 O   0  0  0  0  0  0  0  0  0  0  0  0
   -4.1952   -1.8214   -1.0998 O   0  0  0  0  0  0  0  0  0  0  0  0
   -1.0295   -2.3068   -0.3689 H   0  0  0  0  0  0  0  0  0  0  0  0
   -3.1527   -1.2575    1.0293 O   0  0  0  0  0  0  0  0  0  0  0  0
   -2.3217   -0.9018    1.4401 H   0  0  0  0  0  0  0  0  0  0  0  0
  1  5  2  0  0  0  0
  1  3  1  0  0  0  0
  2  1  2  0  0  0  0
  4  1  1  0  0  0  0
  6 15  1  0  0  0  0
  7  4  1  0  0  0  0
  8  9  1  0  0  0  0
  9 13  1  0  0  0  0
 10  8  2  0  0  0  0
 11 14  1  0  0  0  0
 11  8  1  0  0  0  0
 12  8  2  0  0  0  0
 15 17  1  0  0  0  0
 15 18  1  0  0  0  0
 16 23  1  0  0  0  0
 16 15  1  0  0  0  0
 17 21  1  0  0  0  0
 17 20  1  0  0  0  0
 18 25  1  0  0  0  0
 18 26  1  0  0  0  0
 19 17  1  0  0  0  0
 22 16  1  0  0  0  0
 24 16  1  0  0  0  0
 27 18  1  0  0  0  0
 28 33  1  0  0  0  0
 29 28  2  0  0  0  0
 30 28  1  0  0  0  0
 30 32  1  0  0  0  0
 31 28  2  0  0  0  0
 33 34  1  0  0  0  0
M  RAD  1   3   2
M  END
$$$$
