38
3sa1ma1dma-16
S       -2.85715200      -0.62340500      -0.18131800
O       -2.78078300       0.65929500       0.51577400
O       -4.12893300      -1.15305000      -0.57587700
O       -1.91932100      -0.52670000      -1.46057600
O       -2.14147100      -1.72969700       0.68144400
H       -1.23017300      -1.40982400       0.95500000
H       -1.39738700       0.32738500      -1.47720600
S        1.00101400       1.65407100      -1.57120500
O        1.59912400       1.98718200      -0.25065200
O        1.62473100       0.48274600      -2.20343500
O       -0.46899600       1.64680400      -1.52616600
O        1.31104300       2.91315200      -2.52762700
H        2.26610100       2.96579400      -2.67411500
S        1.32819300      -0.73014000       1.97927600
O        0.23964900      -0.78765600       0.91626100
O        0.96103000       0.26933600       2.99339700
O        1.74928200      -2.03786500       2.43181000
O        2.58551900      -0.15717000       1.15247200
H        2.32322400       0.66893400       0.68145200
C       -1.17312500       3.32547900       2.16933000
N       -0.61407400       2.08154900       1.60169700
H       -0.15658400       1.47463000       2.31078700
H       -1.34944800       1.51907600       1.13861500
H       -0.37698200       3.89039300       2.65338000
H       -1.61409600       3.91524800       1.36641100
H       -1.94062500       3.06849900       2.89842100
H        0.11699100       2.26299700       0.89757300
C        2.45268200      -2.72969400      -0.95256800
N        1.15105100      -2.10856400      -1.29850100
C        0.18790600      -3.01780400      -1.95942900
H        0.73229200      -1.71464400      -0.42529700
H        2.92110400      -3.10814500      -1.86208600
H        3.07885900      -1.97276900      -0.48101600
H        2.27842800      -3.54126100      -0.24574500
H        0.62144600      -3.38382600      -2.89111700
H       -0.02024600      -3.85439900      -1.29147100
H       -0.73092400      -2.46646300      -2.15613300
H        1.31453600      -1.25984700      -1.86647600
38
3sa1ma1dma-17
S        2.64472400      -1.40264400      -0.31574200
O        2.95239700      -0.11760400       0.31445800
O        3.69474400      -2.33880400      -0.59064300
O        1.56935000      -2.14830400       0.56723200
O        1.86981100      -1.11439200      -1.66240300
H        1.47282200      -0.19566600      -1.67403100
H        0.85168300      -1.49483200       0.83370500
S       -0.57947400       1.62090900      -1.61478800
O        0.85679900       1.30020900      -1.74879200
O       -1.46967000       0.48268600      -1.88761400
O       -0.88309100       2.35647400      -0.36679500
O       -0.89480000       2.73279100      -2.74033500
H       -0.66346100       2.37106300      -3.60739900
S       -1.22577400      -0.10966900       1.99482800
O       -0.63560700       0.68281400       3.07626300
O       -0.22455800      -0.35306200       0.89871900
O       -1.94628100      -1.33413900       2.34765000
O       -2.36062700       0.77720000       1.27303800
H       -1.93012500       1.47672600       0.72532700
C        2.30718000       3.02076500       1.74052400
N        1.36768100       1.93153400       1.40300300
H        0.84620800       1.57167300       2.21952800
H        0.64875300       2.22882000       0.72352300
H        3.04688300       2.64582400       2.44683500
H        2.80546400       3.34844400       0.82894600
H        1.75627400       3.85018800       2.18302000
H        1.86320200       1.12730600       0.97497400
C       -3.72294200      -1.74253800      -0.91107700
N       -2.29942700      -1.79123400      -0.51079800
C       -1.51490500      -2.89328800      -1.11509800
H       -1.85867100      -0.89269200      -0.78777000
H       -4.21068900      -2.67537300      -0.62567700
H       -4.18912000      -0.90150800      -0.39846600
H       -3.78037700      -1.59862100      -1.99022800
H       -1.95722600      -3.84822100      -0.82890100
H       -1.52807600      -2.77858600      -2.19921600
H       -0.48885100      -2.83058200      -0.75253300
H       -2.23782600      -1.84020600       0.52184800
38
3sa1ma1dma-11
S        2.28467600       1.71185900      -0.50174700
O        2.51267900       0.82984500       0.71468200
O        1.16659300       2.63680400      -0.25139000
O        1.78607300       0.66612800      -1.63132500
O        3.51313900       2.26041800      -1.02592500
H        0.93276700       0.26504100      -1.33759200
H        1.26022900       0.19550200       1.46738000
S       -3.85121700      -0.37312900      -0.65360700
O       -3.81324800      -1.63072200       0.29756600
O       -5.12827300      -0.35335300      -1.29892900
O       -2.75234200      -0.68742200      -1.74747200
O       -3.40394700       0.79531600       0.10825900
H       -1.84463600      -0.60606200      -1.35106900
H       -2.92939400      -1.71483200       0.74305800
S       -0.12190600      -1.28374400       0.73097200
O       -1.34258300      -1.82076600       1.32956700
O       -0.41053100      -0.43961300      -0.48162300
O        0.42175900      -0.23973400       1.82408000
O        0.95145600      -2.25154900       0.47881900
H        2.60966400      -1.95525000      -0.16236800
H       -0.82825600       1.41583600       1.77089400
N       -1.17055800       2.08008700       1.06963600
H       -1.90146300       1.57685900       0.53502300
H       -0.35009400       2.27663000       0.45570500
C       -1.71280800       3.31843300       1.67075100
H       -2.55479500       3.06568100       2.31412900
H       -0.92887900       3.81147800       2.24457500
H       -2.04903500       3.97514600       0.86970400
N        3.55895400      -1.54624200      -0.09749600
H        3.35108800      -0.57169900       0.22535600
C        4.30844300      -2.26388300       0.95663400
H        3.71516400      -2.25268200       1.87079400
H        4.47805100      -3.29418200       0.64148100
H        5.26203700      -1.76141400       1.12215800
C        4.22451600      -1.50474900      -1.42002300
H        4.36541400      -2.52353600      -1.78351500
H        3.59311700      -0.93506000      -2.10124400
H        5.18829500      -1.00578400      -1.31399900
