13
1sa1b
S        1.88219300       0.08004100       0.00027800
O        1.37732000      -0.74567300      -1.24121800
O        1.37255000      -0.73987400       1.24274400
O        3.32220100       0.03856300       0.00256200
O        1.20939500       1.38081500      -0.00428800
H        0.35753400      -0.70748600      -1.28675400
H        0.35174100      -0.69779600       1.28846600
S       -1.87300700      -0.09369400       0.00023300
O       -1.18893000      -0.60880200      -1.22174500
O       -1.18988400      -0.59614800       1.22845900
O       -3.31414600      -0.23705600       0.00075800
O       -1.61498800       1.50594500      -0.00759200
H       -0.64439100       1.64155800      -0.00732000
20
2sa1b
S       -3.37490900      -0.67137000       0.08628100
O       -4.60411600      -1.41341900       0.10020100
O       -2.91313900      -0.00940000       1.30595500
O       -3.48218500       0.41170500      -1.05739000
O       -2.23362400      -1.64282100      -0.41250100
H       -2.66041000       0.98857600      -1.05096200
H       -1.34490400      -1.18285000      -0.35643600
O       -0.55340100       1.43958000       1.44279800
H       -1.41060500       0.97499900       1.57340900
S       -0.12546200       1.23379300      -0.08290200
O        0.01696200      -0.24992400      -0.27155400
O       -1.22541500       1.75869900      -0.91544500
O        1.13965100       1.94987900      -0.21187100
S        3.54927600      -0.61330600       0.09292900
O        2.41345000      -1.37948600      -0.71546100
O        3.55494400       0.82672900      -0.58186400
H        1.52059900      -1.00778500      -0.49002100
H        2.70384100       1.29669900      -0.38469800
O        4.79790900      -1.23535500      -0.26291700
O        3.14008900      -0.48812600       1.47602100
27
3sa1b
S       -4.49609100      -0.17151500      -0.08484900
O       -3.99492500       0.80834200       0.85522500
O       -5.86931700      -0.17593300      -0.51201400
O       -4.19625600      -1.63143700       0.47408100
O       -3.60737200      -0.11233900      -1.40769100
H       -3.25585900      -1.68732000       0.77216500
H       -2.65638300       0.00018000      -1.16560200
S       -0.49016600      -1.03387600       0.28543800
O        0.14287200      -2.15209100      -0.63653900
O       -1.53793800      -1.71028300       1.03678600
O        0.63344500      -0.51431200       1.12883800
O       -0.99995900       0.04927200      -0.60201900
H        1.04498500      -1.88933100      -0.95557400
S        3.71781800      -1.32962800      -0.21274400
O        4.11498000       0.19321500      -0.23486800
O        4.93266600      -2.09136700      -0.25205300
H        3.33528900       0.77863000      -0.44862700
O        2.67897300      -1.54736200      -1.22066200
O        3.07540200      -1.54831800       1.21608700
H        2.13844800      -1.21220900       1.24108200
S        1.23963000       2.64086500      -0.01186100
O        1.63232500       4.01647100       0.08182000
O        2.04130900       1.70221700      -0.80112800
O        1.12113800       2.07121700       1.45780600
O       -0.23072600       2.58944300      -0.56522500
H        0.90097700       1.09959400       1.42711900
H       -0.53946000       1.64306100      -0.63384800
34
4sa1b
S        2.78827600      -3.08644200      -0.28960900
S       -5.04857100      -0.71054100       0.17937900
S       -1.28774200      -0.65770000       0.05691700
S        0.35138600       3.48232400      -0.45519700
O       -1.92253600      -1.52775100      -0.93617300
O        0.18250900      -0.59766800      -0.04359500
O       -1.89664600       0.71211300       0.06096500
O       -6.48083900      -0.71949200       0.22282200
O       -4.27803800      -1.15797600       1.33890700
O        2.31816900      -2.71759800       1.03022000
O        2.92951300      -4.45692400      -0.69873200
O        1.65037900       3.93903200       0.03844600
O       -0.60355200       4.45515300      -0.90692700
O       -1.54505900      -1.26134700       1.50403300
O       -4.58928100       0.76107900      -0.17884100
O       -4.60420800      -1.56410900      -1.07515000
O        4.21028600      -2.41624000      -0.53885300
O        1.86727500      -2.35471400      -1.36330600
O       -0.21018500       2.58856900       0.71125100
O        0.56150800       2.45962100      -1.64024700
H       -3.60205400       0.84050300      -0.09837900
H       -3.61237500      -1.63841500      -1.09943700
H       -2.52200600      -1.31252900       1.62930600
H        1.23346500      -1.74824500      -0.91601200
H        4.27309900      -1.55436800      -0.06888800
H        1.28700600       1.82149100      -1.41312900
H       -0.92611100       1.95014900       0.41751200
S        3.15356600       0.89463200       0.52092900
O        3.53364900       2.33246300       1.00280800
O        2.00608100       0.51415700       1.51781300
O        4.31738900       0.06165600       0.73843600
O        2.61117500       0.93339900      -0.83494500
H        2.82764700       2.98145900       0.71669600
H        1.26998500       0.03622600       1.04218800
41
5sa1b
S        3.86744200       2.48007100      -0.04970900
O        4.61721200       1.39520500       0.80052400
O        2.62209900       2.83978900       0.86517900
O        4.73070400       3.62104200      -0.14491000
O        3.34914800       1.86203400      -1.27328100
H        4.20582500       0.49540500       0.67102400
H        1.76930100       2.66255300       0.39347300
S        3.08630000      -2.10236700       0.96159000
O        1.79616000      -1.78261100       1.81049400
O        2.60451700      -3.18546600      -0.07022000
O        3.44396100      -0.88677600       0.22422300
O        4.06147800      -2.71568000       1.81508500
H        1.23217600      -1.11370900       1.34248200
H        1.70845000      -2.97495900      -0.44837800
S       -0.84771500      -3.10077700      -1.76290900
O       -1.19027300      -1.90533400      -2.73685700
O       -2.20181900      -3.39336400      -1.02150300
O       -0.53445100      -4.24935500      -2.56188000
O        0.11715900      -2.60334600      -0.77968300
H       -1.13246600      -1.03858700      -2.25761700
H       -2.47288300      -2.63330600      -0.43520900
S       -3.10057400      -1.08188500       1.81650200
O       -3.99042100       0.19411700       2.04470200
O       -1.69815400      -0.66890900       2.40807700
O       -3.65089600      -2.13414600       2.61956500
O       -2.93429600      -1.27395900       0.37217400
H       -3.60049400       0.98655800       1.58689700
H       -1.08441600      -0.33907500       1.70130100
S       -3.07230800       3.00321300      -0.31747600
O       -3.24952400       1.99524000      -1.52029000
O       -1.78695100       3.83568600      -0.69024900
O       -4.19386300       3.89381300      -0.32596700
O       -2.74980300       2.21976900       0.87854700
H       -2.52729800       1.31755200      -1.48898400
H       -0.96758000       3.28311700      -0.58018000
S        0.14468300       0.74345000      -0.61734800
O        1.30731600       0.20485400      -1.51786400
O       -1.08055100       0.40849300      -1.37507900
O        0.21263500       0.06036900       0.69445300
O        0.33407600       2.21133700      -0.46118300
H        2.14041400       0.74476600      -1.40766800
48
6sa1b
S        1.72297400      -0.08176700       0.75855600
O        1.67946600       1.06875900       1.88344600
O        0.61403900       0.25013300      -0.16364200
O        3.06226100       0.09753200       0.14587600
O        1.57131800      -1.35908100       1.44927000
H        0.80694500       0.96152700       2.35898400
S       -4.20023200      -0.05493600      -0.80741400
O       -3.65642800       0.38820900      -2.21272800
O       -4.63542400      -1.53604000      -1.10047200
O       -3.05145000      -0.05638400       0.11212300
O       -5.38447600       0.66404000      -0.43443300
H       -2.81663000       0.92407600      -2.12649100
H       -3.84357200      -2.09644500      -1.31225500
S       -1.11298600      -2.62119600      -1.22069500
O       -0.80511100      -1.20895200      -1.82511700
O       -0.17539800      -3.59478400      -2.01084200
O       -0.75581200      -2.63511300       0.18780300
O       -2.45858700      -2.98857600      -1.61872800
H       -0.23099700      -0.67031400      -1.21114500
H        0.78092300      -3.37673900      -1.82613000
S       -1.64396500      -0.39496600       3.24371800
O       -1.30257400      -1.84916200       2.73460700
O       -3.10840400      -0.13415900       2.74611000
O       -1.66731600      -0.44735500       4.67584900
O       -0.77070900       0.56481300       2.56438100
H       -1.08807300      -1.90768700       1.77389800
H       -3.14218800      -0.02095700       1.75471400
S        3.15217200       3.54120700      -0.28930900
O        2.66932400       3.60123600       1.22110300
O        4.27627200       2.43637300      -0.28383200
O        2.05115900       3.02697700      -1.10145700
O        3.76192900       4.80220400      -0.58566000
H        2.21600200       2.76606300       1.47615800
H        3.85812400       1.53833700      -0.20371100
S        3.33084200      -3.35629600      -0.64268200
O        2.72618800      -3.67110900       0.77835200
O        4.38351100      -2.20978200      -0.38183900
O        4.04266100      -4.51916100      -1.08046400
O        2.26744900      -2.77894400      -1.47210000
H        2.19322700      -2.89428300       1.09178800
H        3.93017700      -1.33968700      -0.23235200
S       -1.43749300       3.00299300      -1.09040500
O       -0.35764800       4.02818300      -1.59833300
O       -0.84106000       2.50667000       0.28587000
O       -2.64574400       3.73673300      -0.85146500
O       -1.46434100       1.84888900      -1.99481700
H        0.56241500       3.67217200      -1.48879100
H       -0.40810700       1.62611800       0.16613300
