2sa.log
 OpenBabel02271919083D
Gaussian kemi/andersx/programs/g09/g09 # opt freq 6-31++g(d,p) wb97xd
 14 12  0  0  0  0  0  0  0  0999 V2000
   -2.0770    0.0679    0.1247 S   0  0  0  0  0  0  0  0  0  0  0  0
   -1.4415    0.9424   -1.0166 O   0  0  0  0  0  0  0  0  0  0  0  0
   -1.0981   -0.1514    1.1765 O   0  0  0  0  0  0  0  0  0  0  0  0
   -2.2308   -1.3753   -0.5573 O   0  0  0  0  0  0  0  0  0  0  0  0
   -3.3705    0.6121    0.4158 O   0  0  0  0  0  0  0  0  0  0  0  0
   -0.4822    0.7099   -1.1373 H   0  0  0  0  0  0  0  0  0  0  0  0
   -2.9873   -1.3712   -1.1629 H   0  0  0  0  0  0  0  0  0  0  0  0
    2.0769   -0.0679   -0.1247 S   0  0  0  0  0  0  0  0  0  0  0  0
    2.2313    1.3753    0.5571 O   0  0  0  0  0  0  0  0  0  0  0  0
    1.0979    0.1516   -1.1764 O   0  0  0  0  0  0  0  0  0  0  0  0
    1.4414   -0.9422    1.0168 O   0  0  0  0  0  0  0  0  0  0  0  0
    3.3703   -0.6125   -0.4160 O   0  0  0  0  0  0  0  0  0  0  0  0
    2.9879    1.3710    1.1626 H   0  0  0  0  0  0  0  0  0  0  0  0
    0.4823   -0.7093    1.1378 H   0  0  0  0  0  0  0  0  0  0  0  0
  1  5  2  0  0  0  0
  1  3  2  0  0  0  0
  2  1  1  0  0  0  0
  4  1  1  0  0  0  0
  6  2  1  0  0  0  0
  7  4  1  0  0  0  0
  8  9  1  0  0  0  0
  8 11  1  0  0  0  0
  9 13  1  0  0  0  0
 10  8  2  0  0  0  0
 11 14  1  0  0  0  0
 12  8  2  0  0  0  0
M  END
$$$$
