5sa.log
 OpenBabel02271919083D
Gaussian users/kemi/kmacke/programs/G09D/g09/g09 # opt=(maxcycle=10000) freq wb9
 35 30  0  0  0  0  0  0  0  0999 V2000
    0.0000   -0.0043    1.2914 S   0  0  0  0  0  0  0  0  0  0  0  0
    1.2446    0.0643    2.0323 O   0  0  0  0  0  0  0  0  0  0  0  0
   -1.2442   -0.0775    2.0324 O   0  0  0  0  0  0  0  0  0  0  0  0
   -0.1425    1.2344    0.3399 O   0  0  0  0  0  0  0  0  0  0  0  0
    0.7319    1.4578   -0.0763 H   0  0  0  0  0  0  0  0  0  0  0  0
    0.1422   -1.2372    0.3323 O   0  0  0  0  0  0  0  0  0  0  0  0
   -0.7325   -1.4583   -0.0846 H   0  0  0  0  0  0  0  0  0  0  0  0
    3.5872    1.1218   -0.2767 S   0  0  0  0  0  0  0  0  0  0  0  0
    4.8049    1.8254   -0.6268 O   0  0  0  0  0  0  0  0  0  0  0  0
    2.3132    1.7458   -0.5789 O   0  0  0  0  0  0  0  0  0  0  0  0
    3.6963    0.8209    1.2609 O   0  0  0  0  0  0  0  0  0  0  0  0
    3.5472   -0.2869   -0.9623 O   0  0  0  0  0  0  0  0  0  0  0  0
    4.4514   -0.7035   -0.9531 H   0  0  0  0  0  0  0  0  0  0  0  0
    2.8288    0.4894    1.6119 H   0  0  0  0  0  0  0  0  0  0  0  0
   -3.5877   -1.1207   -0.2821 S   0  0  0  0  0  0  0  0  0  0  0  0
   -4.8058   -1.8218   -0.6357 O   0  0  0  0  0  0  0  0  0  0  0  0
   -2.3141   -1.7438   -0.5876 O   0  0  0  0  0  0  0  0  0  0  0  0
   -3.6965   -0.8276    1.2570 O   0  0  0  0  0  0  0  0  0  0  0  0
   -3.5469    0.2914   -0.9604 O   0  0  0  0  0  0  0  0  0  0  0  0
   -2.8288   -0.4987    1.6097 H   0  0  0  0  0  0  0  0  0  0  0  0
   -4.4510    0.7084   -0.9494 H   0  0  0  0  0  0  0  0  0  0  0  0
   -7.2917    0.6057   -0.4568 S   0  0  0  0  0  0  0  0  0  0  0  0
   -7.3368   -0.9204   -0.8403 O   0  0  0  0  0  0  0  0  0  0  0  0
   -7.1258    0.5784    1.1371 O   0  0  0  0  0  0  0  0  0  0  0  0
   -6.0454    1.1905   -0.9211 O   0  0  0  0  0  0  0  0  0  0  0  0
   -8.5583    1.1748   -0.8092 O   0  0  0  0  0  0  0  0  0  0  0  0
   -7.9785    0.3757    1.5508 H   0  0  0  0  0  0  0  0  0  0  0  0
   -6.4344   -1.3239   -0.7664 H   0  0  0  0  0  0  0  0  0  0  0  0
    7.2922   -0.6021   -0.4597 S   0  0  0  0  0  0  0  0  0  0  0  0
    7.3363    0.9260   -0.8354 O   0  0  0  0  0  0  0  0  0  0  0  0
    7.1268   -0.5831    1.1343 O   0  0  0  0  0  0  0  0  0  0  0  0
    6.0459   -1.1850   -0.9266 O   0  0  0  0  0  0  0  0  0  0  0  0
    8.5589   -1.1687   -0.8155 O   0  0  0  0  0  0  0  0  0  0  0  0
    6.4337    1.3286   -0.7596 H   0  0  0  0  0  0  0  0  0  0  0  0
    7.9796   -0.3825    1.5488 H   0  0  0  0  0  0  0  0  0  0  0  0
  1  2  2  0  0  0  0
  1  3  2  0  0  0  0
  4  1  1  0  0  0  0
  5  4  1  0  0  0  0
  6  1  1  0  0  0  0
  7  6  1  0  0  0  0
  8 11  1  0  0  0  0
  9  8  2  0  0  0  0
 10  8  2  0  0  0  0
 11 14  1  0  0  0  0
 12 13  1  0  0  0  0
 12  8  1  0  0  0  0
 15 18  1  0  0  0  0
 16 15  2  0  0  0  0
 17 15  2  0  0  0  0
 18 20  1  0  0  0  0
 19 21  1  0  0  0  0
 19 15  1  0  0  0  0
 22 24  1  0  0  0  0
 23 28  1  0  0  0  0
 23 22  1  0  0  0  0
 24 27  1  0  0  0  0
 25 22  2  0  0  0  0
 26 22  2  0  0  0  0
 29 31  1  0  0  0  0
 30 34  1  0  0  0  0
 30 29  1  0  0  0  0
 31 35  1  0  0  0  0
 32 29  2  0  0  0  0
 33 29  2  0  0  0  0
M  END
$$$$
