24
1sa1fa1eda-1
S        1.96134600      -0.76068300       0.07164100
O        2.99547800      -1.39333100       0.86837500
O        1.06513700       0.18933000       0.78421700
O        2.73069600       0.23480600      -0.97595700
O        1.15614000      -1.68054500      -0.76704800
H        3.61349100      -0.12831600      -1.12540200
H       -0.40168100      -1.09256500      -0.85364200
H       -0.62186400       4.05141800      -0.17377100
H        0.90451700       1.74842100       0.57145400
C       -0.43004000       2.97508200      -0.08065200
O        0.71765100       2.73492800       0.48142900
O       -1.24177900       2.14784100      -0.47665500
H       -1.79391700      -2.11301200       0.71915700
H       -1.25882400      -0.56810500       1.40204800
H       -3.75138500      -0.87166000       1.68131900
H       -3.37369300       0.51368700       0.64920400
H       -4.34724700      -2.08501800      -0.28013900
H       -4.89327100      -0.58848300      -0.65201900
H       -2.02135700      -0.88005600      -1.39983900
H       -1.18546000       0.39750900      -0.69272900
C       -1.88202400      -1.02661100       0.63361400
C       -3.33648100      -0.57859500       0.70848900
N       -1.33125900      -0.63162400      -0.68478000
N       -4.06104800      -1.12500200      -0.44029000
24
1sa1fa1eda-2
S       -0.84218300      -1.56981100      -0.15761500
O       -2.01166900      -2.31824700      -0.57685900
O       -1.13549900      -0.34789100       0.64809900
O       -0.01080100      -2.52830200       0.87729600
O        0.17929800      -1.27691100      -1.18431100
H       -0.65539400      -3.03505900       1.38891400
H        0.78381100       0.26715300      -0.90204700
H       -2.88091400       3.57694700      -0.06183200
H       -2.15402700       0.84160200       0.38342100
C       -2.17653000       2.73830900       0.00334100
O       -2.78122000       1.62501900       0.30133800
O       -0.97860000       2.89689600      -0.19106300
H        2.12488200       1.78067900       1.26163700
H        1.09520300       0.33562900       1.42433100
H        3.53284000      -0.29050400       1.45157200
H        2.67930600      -0.98518300       0.06956500
H        4.55036200       1.26048300      -0.01725500
H        4.44271700      -0.03561700      -1.00901200
H        0.37557400       1.81798400      -0.37880600
H        1.88048300       1.52353500      -1.13411400
C        1.82885700       0.83807300       0.79276100
C        3.03562700      -0.04658700       0.50453500
N        1.16857300       1.15632700      -0.49720600
N        3.90004000       0.62596500      -0.46770300
24
1sa1fa1eda-4
S       -1.12243900      -1.43668300       0.03265200
O        0.08786000      -1.59707400      -0.81142100
O       -1.50795700      -2.61640800       0.78477300
O       -1.03982500      -0.16437800       0.79669700
O       -2.34808000      -1.12526600      -1.00406200
H       -2.78094300      -1.96557800      -1.20426800
H       -2.02897600       3.97445600      -0.10830000
H       -1.83387300       1.20196500       0.57505100
C       -1.51679700       3.00787300      -0.02491700
O       -2.28735200       2.09600900       0.49280100
O       -0.35727100       2.87025700      -0.39179400
H        2.50607700       1.49448200       1.07215300
H        1.31088500       0.23119700       1.45697000
H        3.65049900      -0.68939900       1.55403300
H        2.68346500      -1.46118200       0.29169800
H        4.80634100       0.50558200      -0.13428800
H        4.53450100      -0.90735900      -0.91194200
H        0.73682200       1.52336200      -0.52589500
H        2.15483600       0.92132900      -1.26024700
C        2.08288400       0.53871100       0.75041000
C        3.16352000      -0.52259800       0.58495900
N        1.42692900       0.74655600      -0.56310700
N        4.08011600      -0.11186000      -0.48072000
H        0.91343500      -0.13381500      -0.81928700
