26
1sa1ma1eda-140
S       -1.73682000      -0.05796500      -0.05287100
O       -1.48560400      -0.52078700       1.32301900
O       -1.50180800       1.40310800      -0.20488400
O       -1.11006000      -0.86476700      -1.10364200
O       -3.32831800      -0.26868900      -0.32063800
H       -3.80558200       0.16226900       0.40066000
C        1.89046200       2.95756900       0.13153000
N        1.21150700       1.66050900       0.01113000
H        1.38040500       1.00025700       0.80983800
H        0.17184200       1.73597300      -0.08748700
H        2.96519500       2.80239900       0.23768300
H        1.69813400       3.55549800      -0.75987400
H        1.51342000       3.48901400       1.00598600
H        1.54778600       1.05374100      -0.78051100
C        1.58681700      -1.81353200       0.65642600
C        2.46678800      -1.53640800      -0.56259900
N        1.84494500      -0.58764400      -1.50107700
N        1.45775200      -0.67381000       1.58410800
H        2.09764600      -0.77045400       2.36475900
H        0.50448200      -0.66369500       1.95017200
H        1.99192900      -2.69502500       1.16915700
H        0.58347600      -2.07745000       0.30950600
H        2.66773000      -2.50446800      -1.04352800
H        3.43362000      -1.12910100      -0.23954500
H        0.86513700      -0.84119700      -1.65420400
H        2.31640000      -0.62040300      -2.39878400
26
1sa1ma1eda-8
S       -1.73652300      -0.05299400      -0.01597800
O       -1.16515800      -0.86706000      -1.10589200
O       -1.41885900      -0.51604300       1.33515300
O       -1.49720900       1.40044900      -0.22656700
O       -3.35054900      -0.23982900      -0.10813400
H       -3.62281100      -0.00314100      -1.00452800
H        0.17412300       1.73474800      -0.08557100
N        1.21461800       1.65992500       0.00544300
H        1.54001200       1.05644800      -0.79239000
H        1.39506100       0.99701300       0.79976900
C        1.89325000       2.95738100       0.12415000
H        1.69211600       3.55852600      -0.76315400
H        1.52326200       3.48486600       1.00395300
H        2.96906300       2.80310200       0.22006500
C        2.43466200      -1.55025300      -0.60232100
C        1.59033900      -1.81251000       0.64464700
N        1.51194200      -0.67093600       1.57541400
N        1.79550100      -0.59438900      -1.52160300
H        0.80894700      -0.83948500      -1.64706600
H        2.24101200      -0.63090400      -2.43236000
H        2.60631100      -2.52187500      -1.08744900
H        3.41707300      -1.15610600      -0.31163100
H        1.99531300      -2.70169300       1.14416200
H        0.57109800      -2.05753400       0.33171600
H        2.18693400      -0.77028100       2.32564000
H        0.57712500      -0.65583000       1.98437200
26
1sa1ma1eda-11
S       -1.88914800      -0.08615100      -0.22225400
O       -1.63780400       1.36625400      -0.03923400
O       -3.27745700      -0.43503600      -0.47821900
O       -0.85982800      -0.72436500      -1.05256800
O       -1.56284200      -0.74242100       1.28389100
H       -2.40567100      -0.78940200       1.75233100
H        1.47934000       1.14801900      -0.74749700
N        1.05954700       1.68019700       0.05110400
H        1.26186000       1.00660000       0.82830500
H        0.01526700       1.67706000      -0.05911200
C        1.61803900       3.02465700       0.24875000
H        2.69914500       2.96040900       0.38166900
H        1.39681200       3.64381600      -0.62114100
H        1.16977200       3.48006000       1.13240300
C        1.68591900      -1.76187600       0.60026900
C        2.64591300      -1.39500500      -0.53150000
N        2.05812700      -0.44112700      -1.48583000
N        1.45235500      -0.67395000       1.56848200
H        2.10006600      -0.73905500       2.34655000
H        0.50684100      -0.76302800       1.93808400
H        2.07976800      -2.65731200       1.09833400
H        0.71848200      -2.02800700       0.16596600
H        2.93399000      -2.33386300      -1.02612000
H        3.56215500      -0.95604300      -0.11594200
H        1.11294500      -0.73813400      -1.73347300
H        2.60961100      -0.41065100      -2.33665400
