44
2msa2tma-01
S        0.00181200      -2.14870800      -0.52645600
O       -1.24268100      -1.60946700      -1.12907000
O        0.00171100      -2.06090600       0.95713500
O        1.24560100      -1.60780600      -1.12905400
H        1.55122000       0.15948400       0.54259100
C        0.00301800      -3.89683800      -0.92017000
H       -0.89246100      -4.34843400      -0.49163300
H        0.00350700      -4.00337800      -2.00534600
H        0.89872100      -4.34734400      -0.49095000
S       -0.00201500       2.10025400      -0.72276100
O        1.24858500       2.87920100      -0.64440500
O       -1.25308100       2.87825800      -0.64220500
O       -0.00070300       0.98635200       0.30420900
H       -1.55092200       0.15728200       0.54304900
C       -0.00319900       1.26247400      -2.29878200
H       -0.00381000       2.02091600      -3.08219600
H        0.88059100       0.62533200      -2.35010700
H       -0.88706300       0.62532600      -2.34876400
N       -2.54542000       0.17916600       0.87331300
C       -3.38829500       0.46758700      -0.31657900
H       -3.07644900       1.43059200      -0.72390800
H       -3.21695900      -0.32575900      -1.04325800
H       -4.43565000       0.49737300      -0.00553900
C       -2.88494200      -1.12937200       1.48132900
H       -2.83768700      -1.88627500       0.70107400
H       -2.14071400      -1.36743000       2.23963300
H       -3.88667600      -1.06212900       1.91344500
C       -2.60767800       1.28453100       1.86186600
H       -1.93074500       1.05024100       2.68372400
H       -2.28401900       2.20077400       1.36651000
H       -3.63267700       1.37532600       2.22941300
N        2.54565600       0.18328800       0.87282500
C        2.60612700       1.28898800       1.86112300
H        2.28070700       2.20462800       1.36580900
H        1.92992400       1.05361400       2.68327000
H        3.63107500       1.38168700       2.22834300
C        2.88741700      -1.12455400       1.48111600
H        2.14393000      -1.36348100       2.23987200
H        2.84088700      -1.88178600       0.70111700
H        3.88924900      -1.05565400       1.91273600
C        3.38815600       0.47280000      -0.31707400
H        3.21754600      -0.32057700      -1.04390500
H        3.07551000       1.43556200      -0.72429400
H        4.43549000       0.50342700      -0.00603600
44
2msa2tma-02
S       -1.50430600       1.62991900      -0.74131500
O       -1.14199900       3.05359200      -0.65344900
O       -2.94930000       1.32326100      -0.69167700
O       -0.75450700       0.81530600       0.29270200
H       -1.49944000      -0.58969100       0.60917300
C       -0.90692600       1.02457500      -2.31161200
H       -1.43644100       1.56045900      -3.10031100
H        0.16860300       1.19343600      -2.36195900
H       -1.09368500      -0.04916900      -2.36026900
S        1.47331000      -1.58059500      -0.61625900
O        0.15916300      -2.07489000      -1.07762500
O        1.62732400      -1.59279900       0.86177800
O        1.85511200      -0.25719500      -1.18997200
H        1.61145000       0.85641000       0.21905200
C        2.67832100      -2.73650400      -1.26036700
H        2.46360500      -3.72122400      -0.84415500
H        2.58840000      -2.75194000      -2.34685100
H        3.67323800      -2.40413300      -0.96193900
N        2.06037800       1.51296300       0.89746600
C        1.37625700       1.37973000       2.20681500
H        0.34318000       1.69721400       2.08052000
H        1.40516000       0.32563900       2.48469200
H        1.90160200       1.99737200       2.93961800
C        3.47720000       1.08471800       0.98615500
H        3.49551500       0.05703400       1.34960600
H        3.91436000       1.12302400      -0.01087900
H        4.00953800       1.75354800       1.66650900
C        1.92325800       2.87791300       0.32970000
H        2.42177400       2.89561500      -0.64026100
H        0.86234500       3.10309000       0.19589900
H        2.39698400       3.59153900       1.00818000
N       -2.18544300      -1.33690600       0.93120800
C       -1.43653400      -2.39026800       1.65497900
H       -0.72995100      -2.84425600       0.96272800
H       -0.88220200      -1.92922600       2.47253900
H       -2.14703200      -3.12529600       2.04287200
C       -3.14651300      -0.62951100       1.81174000
H       -2.60375100      -0.22581500       2.66734900
H       -3.58785800       0.18861700       1.24078800
H       -3.90857400      -1.33566200       2.15098100
C       -2.85566800      -1.87089900      -0.28241100
H       -3.34571300      -1.03605100      -0.78550100
H       -2.08766800      -2.30224100      -0.92370700
H       -3.58474800      -2.62660100       0.02175400
44
2msa2tma-03
S        1.38100200       1.79898500      -0.46783300
O        0.09061000       2.16492600      -1.09196000
O        2.10930000       0.71448400      -1.17451400
O        1.27592900       1.52236500       0.99305600
H        1.51587500      -0.65658900       0.59925600
C        2.41378000       3.25565500      -0.61191100
H        2.54495100       3.47643700      -1.67165100
H        1.91382400       4.08298200      -0.10716700
H        3.37605500       3.04761300      -0.14239800
S       -1.13058700      -1.66932600      -0.83805900
O       -0.84918300      -3.10770700      -0.94205800
O       -0.40078900      -1.00035000       0.27679600
O       -2.58931100      -1.32575000      -0.73730600
H       -2.62275200      -0.05197400       0.25521400
C       -0.56185300      -0.89829700      -2.34275100
H       -1.12764600      -1.32200400      -3.17308900
H       -0.70627100       0.17965500      -2.25224900
H        0.50470200      -1.09725700      -2.44968000
N        2.22601000      -1.33679600       0.93295100
C        1.64781700      -1.98807500       2.13243600
H        1.45654800      -1.21844800       2.88080800
H        0.70949700      -2.45717900       1.84119600
H        2.35958400      -2.72334200       2.51495100
C        2.42798100      -2.30536700      -0.17523500
H        1.48290800      -2.81514800      -0.37208700
H        2.73819800      -1.73983400      -1.05388100
H        3.19854900      -3.02106200       0.12069500
C        3.47025100      -0.59617200       1.25081400
H        3.81659200      -0.11699200       0.33641900
H        3.23363600       0.17124300       1.98643400
H        4.21002100      -1.30252800       1.63516100
N       -2.88607700       0.82210400       0.80065800
C       -2.91324200       1.92637900      -0.19134000
H       -1.90010200       2.06738500      -0.57754100
H       -3.59344500       1.64719400      -0.99727700
H       -3.26385400       2.83763200       0.30039600
C       -4.22811300       0.54104000       1.35426600
H       -4.89749400       0.27345600       0.53606600
H       -4.15585600      -0.29836900       2.04649500
H       -4.60107000       1.42642600       1.87474900
C       -1.88037700       1.06974100       1.86403800
H       -1.83529700       0.18949100       2.50572900
H       -0.90101500       1.23006900       1.40911600
H       -2.19222000       1.94627400       2.43932100
