50
4sa3am1dma-13
S        3.13876700      -0.47800500      -1.48288500
O        4.25091200      -0.35427000      -2.64986900
O        2.55044900       0.86696600      -1.45228100
O        3.86767300      -0.87843700      -0.26568800
O        2.17969800      -1.51473600      -1.94128400
H        3.36830900      -0.20402300       1.21826000
H        4.78403600      -1.16131900      -2.65535300
S       -2.33010200       2.43791200      -0.48899700
O       -1.94502800       2.13669000      -1.88561800
O       -1.39425200       1.68692300       0.43676000
O       -2.47078800       3.83846900      -0.15200400
O       -3.76058300       1.77279800      -0.22002400
H       -3.70673800       0.80121000      -0.35683800
S        1.48383800      -0.60623600       2.12080200
O        0.81876500       0.05300700       3.25509300
O        0.73989700      -0.40714400       0.84741600
O        2.85734700       0.19978100       1.96693200
O        1.81725900      -2.02849900       2.32580800
H        1.36738900      -2.88985400       0.90240700
S       -2.75709100      -2.16976700      -0.41117000
O       -3.57271000      -0.97981100      -0.12586500
O       -2.14579200      -2.18553000      -1.74996500
O       -1.78444100      -2.47034600       0.66738400
O       -3.75164400      -3.43986900      -0.34092800
H       -4.45263200      -3.32222800      -0.99783300
N        0.90805700      -3.14598000      -0.00243200
H        1.02501800      -4.13332400      -0.21107500
H        1.33988700      -2.56518500      -0.74838500
H       -0.09759200      -2.92013400       0.10783200
N       -1.83084400      -0.16102000       2.36642500
H       -0.96786600      -0.07546200       2.93618900
H       -1.79249200       0.58641200       1.63325200
H       -1.82526100      -1.07269000       1.87709600
H       -2.67309100      -0.06842700       2.92664000
N       -0.31417800      -0.06047300      -1.82147700
H       -0.93900900      -0.86957500      -1.97735800
H       -0.00984000      -0.07285500      -0.83708800
H        0.52512400      -0.14141800      -2.39507500
H       -0.85624600       0.81511700      -1.99266000
C        1.57983000       3.14823600       1.65651400
N        1.19475200       2.57367400       0.34654400
C        1.11895800       3.57123300      -0.74807900
H        1.83874600       1.82118600       0.06004800
H        0.86971900       3.93811200       1.90487600
H        1.55017200       2.36284800       2.41053200
H        2.58887200       3.55554400       1.58553100
H        0.34065300       4.29730300      -0.50866600
H        2.08792400       4.05979600      -0.85426200
H        0.86428600       3.05529800      -1.67269100
H        0.25268100       2.13308300       0.43964200
50
4sa3am1dma-43
S        2.72025800      -1.76873700      -1.18457100
O        1.49216200      -2.59839800      -1.29565700
O        3.86215900      -2.23445100      -1.93610900
O        2.33736800      -0.33248100      -1.45228600
O        3.18004700      -1.79913400       0.35050400
H        2.58896400      -1.25451600       0.93324400
H        0.73790000      -0.29273400      -1.97947000
S       -0.81047900       2.78212400      -0.69312900
O       -1.80353600       2.97950500       0.37645800
O       -0.18657500       3.96585800      -1.24599000
O        0.19707200       1.72788000      -0.33548100
O       -1.63806700       2.10715400      -1.92768600
H       -2.38053800       1.56849900      -1.56102800
H       -0.16265600       0.46441300       0.46183900
S       -3.38233600      -1.05045300      -0.51129300
O       -3.44215600       0.32461800      -1.03855100
O       -2.26350900      -1.82908800      -1.11092700
O       -3.46343400      -1.16762900       0.94441200
O       -4.73748100      -1.77647400      -1.00845300
H       -4.85482100      -1.60737900      -1.95342000
S        0.46728500      -0.44821000       2.33096500
O       -0.37388600      -0.38856100       0.95855600
O        1.86354100      -0.10088000       1.94679500
O       -0.12541200       0.54579900       3.23875800
O        0.30909500      -1.84904200       2.74300300
N       -0.20700200      -0.35011400      -2.43555000
H       -0.84954600      -0.93983100      -1.87754100
H       -0.09626400      -0.76857800      -3.35560600
H       -0.61523600       0.59337500      -2.50258800
N       -0.43373900      -3.28327400       0.49026600
H        0.38520700      -3.10853300      -0.13823300
H       -0.61288700      -4.27903600       0.57868300
H       -0.22876500      -2.85733300       1.41802900
H       -1.24361400      -2.80200100       0.06326100
N       -2.63850200       1.17784100       2.28322700
H       -3.33753300       1.58173400       2.89985800
H       -1.76371400       0.95634300       2.80479600
H       -2.99854600       0.30695600       1.84921400
H       -2.38869000       1.85761400       1.53132000
C        4.44433700       1.30374200       0.69408600
N        3.10425700       1.70511400       0.20265100
C        3.03471700       3.11086600      -0.25848300
H        2.82131700       1.04408800      -0.55467700
H        4.71261000       1.92574700       1.54871900
H        4.41433300       0.25497400       0.98513300
H        5.16665300       1.43879800      -0.11171100
H        3.28479500       3.76925800       0.57474100
H        3.75759800       3.24655400      -1.06407400
H        2.02899900       3.32470000      -0.61678900
H        2.41027700       1.50928200       0.93818700
50
4sa3am1dma-32
S        1.79454500       2.41513700      -0.28607300
O        1.12834000       2.42961100      -1.60633400
O        1.87539400       3.69331000       0.38883200
O        0.82239200       1.52695500       0.68141300
O        3.06023700       1.61793100      -0.31118700
H        3.08042200       0.30281900      -1.49111200
H        0.81690800       0.58855900       0.36098500
S       -0.59083400      -1.17156900       2.50892400
O       -0.53157300      -2.57785600       2.08018600
O        0.66627800      -0.65968000       3.07376800
O       -1.21126500      -0.26765700       1.51862300
O       -1.67264200      -1.11509700       3.72047300
H       -1.39682100      -1.73557500       4.40914400
H       -2.43087100      -0.76387300       0.49126500
S        2.32955000      -1.61773400      -0.91189200
O        3.43854900      -1.88516100       0.01687300
O        2.86118600      -0.52994500      -1.98583300
O        1.91493900      -2.74844300      -1.74874300
O        1.16643200      -0.97153700      -0.24342000
S       -2.91695500      -0.47848900      -1.60049400
O       -3.19053500      -0.98918900      -0.10547400
O       -4.14724900      -0.70550600      -2.32022700
O       -2.46606600       0.93449800      -1.49686100
O       -1.75506700      -1.31111300      -2.08610500
N        0.26131300       0.25971000      -3.04322200
H        0.44243000       1.09579100      -2.44666800
H       -0.48015800      -0.35015100      -2.61679300
H       -0.04488500       0.55777300      -3.96554600
H        1.15119800      -0.24536200      -3.10231100
N       -0.62608200      -3.30756500      -0.62400900
H       -1.09452600      -4.20544300      -0.70311600
H       -0.55627100      -3.02736400       0.37499500
H        0.32261700      -3.34107400      -1.03691300
H       -1.15702600      -2.57384400      -1.15010400
N        3.15291000      -0.03886300       2.00762000
H        3.19163300       0.77072000       1.36356500
H        3.80717100       0.07477100       2.77602300
H        2.18590600      -0.17085000       2.37088200
H        3.38901100      -0.86824600       1.42051800
C       -2.81583200       2.41888100       1.77778500
N       -1.84763000       2.43750800       0.66069500
C       -1.59824600       3.77885000       0.08231400
H       -0.94654600       2.02821300       0.95479000
H       -3.78557700       2.75667300       1.41025000
H       -2.88767700       1.39963400       2.15468200
H       -2.46318800       3.08372400       2.56768400
H       -2.54671900       4.19603300      -0.25825700
H       -1.14653600       4.42038100       0.83940800
H       -0.91209500       3.67061300      -0.75772000
H       -2.17321300       1.80767500      -0.10914000
