1moa.log
 OpenBabel02281910263D
Gaussian groups/kemi/kmacke/programs/G09D/g09/g09 # opt freq wb97xd/6-31++g(d,p)
 11 10  0  0  0  0  0  0  0  0999 V2000
    1.3961    1.2057   -0.0027 O   0  0  0  0  0  0  0  0  0  0  0  0
   -2.3289   -0.7394   -0.0447 O   0  0  0  0  0  0  0  0  0  0  0  0
   -1.2632    1.2224    0.0073 O   0  0  0  0  0  0  0  0  0  0  0  0
    0.0232   -0.8326    0.0743 C   0  0  0  0  0  0  0  0  0  0  0  0
   -1.2254    0.0059    0.0065 C   0  0  0  0  0  0  0  0  0  0  0  0
   -0.0065   -1.5876   -0.7154 H   0  0  0  0  0  0  0  0  0  0  0  0
    0.0038   -1.3930    1.0154 H   0  0  0  0  0  0  0  0  0  0  0  0
    0.4815    1.5552    0.0178 H   0  0  0  0  0  0  0  0  0  0  0  0
   -3.0923   -0.1439   -0.0761 H   0  0  0  0  0  0  0  0  0  0  0  0
    1.3802   -0.1237   -0.0039 C   0  0  0  0  0  0  0  0  0  0  0  0
    2.3892   -0.7797   -0.0478 O   0  0  0  0  0  0  0  0  0  0  0  0
  1  8  1  0  0  0  0
  2  5  1  0  0  0  0
  4  7  1  0  0  0  0
  5  3  2  0  0  0  0
  5  4  1  0  0  0  0
  6  4  1  0  0  0  0
  9  2  1  0  0  0  0
 10  1  1  0  0  0  0
 10  4  1  0  0  0  0
 11 10  2  0  0  0  0
M  END
$$$$
