1sa_2moa.log
 OpenBabel02281910263D
Gaussian groups/kemi/kmacke/programs/G09D/g09/g09 # opt freq wb97xd/6-31++g(d,p)
 29 26  0  0  0  0  0  0  0  0999 V2000
    2.6352   -1.2193   -0.3636 S   0  0  0  0  0  0  0  0  0  0  0  0
    3.2403   -2.3948   -0.9171 O   0  0  0  0  0  0  0  0  0  0  0  0
    1.4658   -0.6232   -1.0327 O   0  0  0  0  0  0  0  0  0  0  0  0
    3.7482   -0.1245   -0.2442 O   0  0  0  0  0  0  0  0  0  0  0  0
    2.2291   -1.4772    1.1396 O   0  0  0  0  0  0  0  0  0  0  0  0
    3.3621    0.7889   -0.1274 H   0  0  0  0  0  0  0  0  0  0  0  0
    1.2469   -1.3752    1.2640 H   0  0  0  0  0  0  0  0  0  0  0  0
   -0.4300   -1.3125    1.4315 O   0  0  0  0  0  0  0  0  0  0  0  0
   -4.4645   -1.8886   -0.4590 O   0  0  0  0  0  0  0  0  0  0  0  0
   -3.8445    0.2381   -0.6840 O   0  0  0  0  0  0  0  0  0  0  0  0
   -2.7659   -1.1326    1.0021 C   0  0  0  0  0  0  0  0  0  0  0  0
   -3.7201   -0.8374   -0.1279 C   0  0  0  0  0  0  0  0  0  0  0  0
   -3.0079   -2.0872    1.4731 H   0  0  0  0  0  0  0  0  0  0  0  0
   -2.8547   -0.3395    1.7483 H   0  0  0  0  0  0  0  0  0  0  0  0
   -0.1247   -0.9915   -0.8885 H   0  0  0  0  0  0  0  0  0  0  0  0
   -5.0449   -1.6308   -1.1910 H   0  0  0  0  0  0  0  0  0  0  0  0
   -1.3064   -1.1669    0.5942 C   0  0  0  0  0  0  0  0  0  0  0  0
   -1.1014   -1.0358   -0.6955 O   0  0  0  0  0  0  0  0  0  0  0  0
    1.2102    1.5500    1.4193 O   0  0  0  0  0  0  0  0  0  0  0  0
   -1.9447    2.1113   -1.1111 O   0  0  0  0  0  0  0  0  0  0  0  0
   -1.3598    1.6564    0.9977 O   0  0  0  0  0  0  0  0  0  0  0  0
    0.2014    2.8240   -0.4008 C   0  0  0  0  0  0  0  0  0  0  0  0
   -1.1131    2.1411   -0.1024 C   0  0  0  0  0  0  0  0  0  0  0  0
    0.1371    3.8515   -0.0209 H   0  0  0  0  0  0  0  0  0  0  0  0
    0.3880    2.8746   -1.4724 H   0  0  0  0  0  0  0  0  0  0  0  0
    0.2451    1.5067    1.6191 H   0  0  0  0  0  0  0  0  0  0  0  0
   -2.7170    1.5336   -0.8833 H   0  0  0  0  0  0  0  0  0  0  0  0
    1.3997    2.1664    0.2708 C   0  0  0  0  0  0  0  0  0  0  0  0
    2.5055    2.2270   -0.2345 O   0  0  0  0  0  0  0  0  0  0  0  0
  1  4  1  0  0  0  0
  1  5  1  0  0  0  0
  2  1  2  0  0  0  0
  3  1  2  0  0  0  0
  4  6  1  0  0  0  0
  5  7  1  0  0  0  0
  9 12  1  0  0  0  0
 10 12  2  0  0  0  0
 11 13  1  0  0  0  0
 11 14  1  0  0  0  0
 12 11  1  0  0  0  0
 15 18  1  0  0  0  0
 16  9  1  0  0  0  0
 17 11  1  0  0  0  0
 17  8  2  0  0  0  0
 18 17  1  0  0  0  0
 19 26  1  0  0  0  0
 20 27  1  0  0  0  0
 20 23  1  0  0  0  0
 22 23  1  0  0  0  0
 22 24  1  0  0  0  0
 22 28  1  0  0  0  0
 23 21  2  0  0  0  0
 25 22  1  0  0  0  0
 28 19  1  0  0  0  0
 29 28  2  0  0  0  0
M  END
$$$$
