1sa_1a_1moa.log
 OpenBabel02281910263D
Gaussian groups/kemi/kmacke/programs/G09D/g09/g09 # opt freq wb97xd/6-31++g(d,p)
 22 19  0  0  0  0  0  0  0  0999 V2000
    0.0331    2.2386    0.1083 N   0  0  0  0  0  0  0  0  0  0  0  0
   -0.9031    1.8326   -0.0380 H   0  0  0  0  0  0  0  0  0  0  0  0
    0.0218    3.2325   -0.1032 H   0  0  0  0  0  0  0  0  0  0  0  0
    0.3145    2.0867    1.0777 H   0  0  0  0  0  0  0  0  0  0  0  0
    2.5267    0.0212   -0.0545 S   0  0  0  0  0  0  0  0  0  0  0  0
    3.9469    0.1666    0.1338 O   0  0  0  0  0  0  0  0  0  0  0  0
    1.7071    0.1025    1.2047 O   0  0  0  0  0  0  0  0  0  0  0  0
    2.3011   -1.4542   -0.6278 O   0  0  0  0  0  0  0  0  0  0  0  0
    1.9096    0.9469   -1.0639 O   0  0  0  0  0  0  0  0  0  0  0  0
    1.3367   -1.5923   -0.7588 H   0  0  0  0  0  0  0  0  0  0  0  0
    0.7986    1.7146   -0.4877 H   0  0  0  0  0  0  0  0  0  0  0  0
   -0.4742   -1.5749   -0.6797 O   0  0  0  0  0  0  0  0  0  0  0  0
   -4.5974    0.1413   -0.2468 O   0  0  0  0  0  0  0  0  0  0  0  0
   -2.6506    1.2289   -0.2885 O   0  0  0  0  0  0  0  0  0  0  0  0
   -2.6837   -1.1675    0.1402 C   0  0  0  0  0  0  0  0  0  0  0  0
   -3.2702    0.1919   -0.1471 C   0  0  0  0  0  0  0  0  0  0  0  0
   -2.9941   -1.8544   -0.6498 H   0  0  0  0  0  0  0  0  0  0  0  0
   -3.1027   -1.5223    1.0869 H   0  0  0  0  0  0  0  0  0  0  0  0
    0.2810   -0.4182    1.2831 H   0  0  0  0  0  0  0  0  0  0  0  0
   -4.9227    1.0321   -0.4437 H   0  0  0  0  0  0  0  0  0  0  0  0
   -1.1720   -1.1250    0.2138 C   0  0  0  0  0  0  0  0  0  0  0  0
   -0.7341   -0.5468    1.3063 O   0  0  0  0  0  0  0  0  0  0  0  0
  1  4  1  0  0  0  0
  2  1  1  0  0  0  0
  3  1  1  0  0  0  0
  5  6  2  0  0  0  0
  5  7  1  0  0  0  0
  8  5  1  0  0  0  0
  9  5  2  0  0  0  0
 10  8  1  0  0  0  0
 11  1  1  0  0  0  0
 12 21  2  0  0  0  0
 13 16  1  0  0  0  0
 14 16  2  0  0  0  0
 15 21  1  0  0  0  0
 15 18  1  0  0  0  0
 16 15  1  0  0  0  0
 17 15  1  0  0  0  0
 19 22  1  0  0  0  0
 20 13  1  0  0  0  0
 21 22  1  0  0  0  0
M  RAD  1   7   2
M  END
$$$$
