3moa_3a.log
 OpenBabel02281910263D
Gaussian groups/kemi/kmacke/programs/G09D/g09/g09 # opt freq wb97xd/6-31++g(d,p)
 45 39  0  0  0  0  0  0  0  0999 V2000
   -2.7988    2.3091    0.6979 O   0  0  0  0  0  0  0  0  0  0  0  0
    0.8732    0.5720    1.6257 O   0  0  0  0  0  0  0  0  0  0  0  0
   -0.2111    2.1285    0.4352 O   0  0  0  0  0  0  0  0  0  0  0  0
   -1.4650    0.5835    1.8121 C   0  0  0  0  0  0  0  0  0  0  0  0
   -0.2156    1.1778    1.2129 C   0  0  0  0  0  0  0  0  0  0  0  0
   -1.3691    0.5864    2.9025 H   0  0  0  0  0  0  0  0  0  0  0  0
   -1.5067   -0.4684    1.5094 H   0  0  0  0  0  0  0  0  0  0  0  0
   -1.8784    2.4658    0.3801 H   0  0  0  0  0  0  0  0  0  0  0  0
    1.6816    0.9536    1.1883 H   0  0  0  0  0  0  0  0  0  0  0  0
   -2.8006    1.2226    1.4594 C   0  0  0  0  0  0  0  0  0  0  0  0
   -3.8346    0.7574    1.8896 O   0  0  0  0  0  0  0  0  0  0  0  0
    2.7672   -1.7910   -0.6416 O   0  0  0  0  0  0  0  0  0  0  0  0
    3.6530    1.9106   -1.7519 O   0  0  0  0  0  0  0  0  0  0  0  0
    2.9168    1.5758    0.3223 O   0  0  0  0  0  0  0  0  0  0  0  0
    4.4067   -0.0530   -0.6384 C   0  0  0  0  0  0  0  0  0  0  0  0
    3.5859    1.2238   -0.6471 C   0  0  0  0  0  0  0  0  0  0  0  0
    5.3136    0.1326   -0.0569 H   0  0  0  0  0  0  0  0  0  0  0  0
    4.6637   -0.3339   -1.6590 H   0  0  0  0  0  0  0  0  0  0  0  0
    2.9999   -1.8414    1.7324 H   0  0  0  0  0  0  0  0  0  0  0  0
    2.9474    2.6716   -1.7085 H   0  0  0  0  0  0  0  0  0  0  0  0
    3.5767   -1.1428    0.0142 C   0  0  0  0  0  0  0  0  0  0  0  0
    3.7709   -1.2748    1.2930 O   0  0  0  0  0  0  0  0  0  0  0  0
   -0.4930   -2.3671    0.4203 O   0  0  0  0  0  0  0  0  0  0  0  0
   -4.0657   -1.3448   -1.4712 O   0  0  0  0  0  0  0  0  0  0  0  0
   -2.2317   -0.1387   -0.9987 O   0  0  0  0  0  0  0  0  0  0  0  0
   -2.0043   -2.4940   -1.4325 C   0  0  0  0  0  0  0  0  0  0  0  0
   -2.7787   -1.1944   -1.2726 C   0  0  0  0  0  0  0  0  0  0  0  0
   -1.9161   -2.7169   -2.4987 H   0  0  0  0  0  0  0  0  0  0  0  0
   -2.5592   -3.3006   -0.9492 H   0  0  0  0  0  0  0  0  0  0  0  0
    1.2044   -2.1239   -1.2101 H   0  0  0  0  0  0  0  0  0  0  0  0
   -4.5615   -0.4628   -1.2622 H   0  0  0  0  0  0  0  0  0  0  0  0
   -0.6436   -2.3673   -0.7917 C   0  0  0  0  0  0  0  0  0  0  0  0
    0.3377   -2.2574   -1.6632 O   0  0  0  0  0  0  0  0  0  0  0  0
    1.6966    3.6449   -1.5261 N   0  0  0  0  0  0  0  0  0  0  0  0
    1.9470    4.5408   -1.1193 H   0  0  0  0  0  0  0  0  0  0  0  0
    1.1155    3.1504   -0.8445 H   0  0  0  0  0  0  0  0  0  0  0  0
    1.1328    3.8243   -2.3510 H   0  0  0  0  0  0  0  0  0  0  0  0
    1.7447   -2.4487    2.3858 N   0  0  0  0  0  0  0  0  0  0  0  0
    1.8276   -3.3971    2.7376 H   0  0  0  0  0  0  0  0  0  0  0  0
    1.0114   -2.4368    1.6697 H   0  0  0  0  0  0  0  0  0  0  0  0
    1.4272   -1.8571    3.1478 H   0  0  0  0  0  0  0  0  0  0  0  0
   -5.2689    0.8908   -0.7637 N   0  0  0  0  0  0  0  0  0  0  0  0
   -5.1927    0.8834    0.2550 H   0  0  0  0  0  0  0  0  0  0  0  0
   -6.2340    1.0704   -1.0192 H   0  0  0  0  0  0  0  0  0  0  0  0
   -4.7018    1.6754   -1.0732 H   0  0  0  0  0  0  0  0  0  0  0  0
  1 10  1  0  0  0  0
  3  5  2  0  0  0  0
  4  6  1  0  0  0  0
  5  2  1  0  0  0  0
  5  4  1  0  0  0  0
  7  4  1  0  0  0  0
  8  1  1  0  0  0  0
  9  2  1  0  0  0  0
 10  4  1  0  0  0  0
 10 11  2  0  0  0  0
 12 21  2  0  0  0  0
 13 20  1  0  0  0  0
 13 16  1  0  0  0  0
 15 17  1  0  0  0  0
 15 21  1  0  0  0  0
 16 15  1  0  0  0  0
 16 14  2  0  0  0  0
 18 15  1  0  0  0  0
 21 22  1  0  0  0  0
 22 19  1  0  0  0  0
 24 27  1  0  0  0  0
 24 31  1  0  0  0  0
 26 27  1  0  0  0  0
 26 29  1  0  0  0  0
 26 32  1  0  0  0  0
 27 25  2  0  0  0  0
 28 26  1  0  0  0  0
 32 23  2  0  0  0  0
 33 30  1  0  0  0  0
 33 32  1  0  0  0  0
 34 35  1  0  0  0  0
 34 36  1  0  0  0  0
 37 34  1  0  0  0  0
 38 39  1  0  0  0  0
 38 41  1  0  0  0  0
 40 38  1  0  0  0  0
 42 43  1  0  0  0  0
 44 42  1  0  0  0  0
 45 42  1  0  0  0  0
M  END
$$$$
