36
1msa1fa1dma1eda-395
S       -1.69096000      -1.34979300      -0.06097000
O       -2.48012800      -0.35573900       0.68959100
O       -1.11344200      -2.44610200       0.73211600
O       -0.62008300      -0.66786900      -0.89244700
H        0.97197700      -1.15991400      -0.31887800
C       -2.79245500      -2.08326800      -1.25879900
H       -3.58705300      -2.59148100      -0.71174600
H       -3.20237300      -1.28928600      -1.88316100
H       -2.22448900      -2.79309400      -1.86017500
H        4.58669300       2.05836900      -0.56616600
H       -0.23487700       0.90354900      -0.31864300
C        3.67545800       1.45794800      -0.38405400
O        3.76318400       0.22901100      -0.63546700
O        2.67485400       2.07997100       0.05542000
N        1.87283800      -1.39920800       0.13994200
C        2.19489300      -2.80239400      -0.18078100
C        1.74052400      -1.14192800       1.58906600
H        2.62783500      -0.72785300      -0.24325200
H        1.39219500      -3.44434800       0.18673800
H        2.28636500      -2.90287400      -1.26259800
H        3.14412400      -3.06744900       0.28784200
H        0.87765400      -1.68692200       1.97488300
H        2.65851300      -1.45517100       2.08924900
H        1.61328900      -0.06811800       1.73703200
H       -0.25104800       3.86521900      -0.22918200
H       -0.41153400       2.85632100      -1.68633800
H       -2.65110300       3.68523700      -0.72324300
H       -2.53240300       1.93132700      -0.90631900
H       -2.98464700       3.29124200       1.48442600
H       -2.71684300       1.66966500       1.27494500
H        1.10997800       1.89717600       0.06410700
H       -0.29918100       1.84637700       1.05008200
C       -0.64365000       2.92427800      -0.62161400
C       -2.14522000       2.79069400      -0.34730700
N        0.04769900       1.82366400       0.08389000
N       -2.36197800       2.60305000       1.08519000
36
1msa1fa1dma1eda-394
S        2.24272600       0.36642300       0.28694800
O        2.25187000       1.24085400      -0.89797100
O        2.67297500      -1.02398200       0.06885900
O        0.88401900       0.42381400       0.96261300
H       -0.17110300       1.32376000      -0.03051500
C        3.37192800       1.06825600       1.47792800
H        4.36945900       1.04091800       1.03865500
H        3.07029200       2.09577300       1.68151100
H        3.33475700       0.46540700       2.38532000
H       -4.89717800       0.25763300       0.95358700
H       -1.84807500      -1.30884300       1.21560900
C       -3.81761300       0.07231900       0.79807900
O       -3.27810400      -0.76480700       1.56014500
O       -3.27003300       0.72306800      -0.13426500
N       -0.92289600       1.81885100      -0.55994200
C       -0.65471100       1.71621100      -2.00849400
C       -0.99937000       3.20602800      -0.06459600
H       -1.83807900       1.31822300      -0.33521800
H        0.31421400       2.16479400      -2.22739100
H       -0.61976700       0.66121800      -2.28195800
H       -1.46030600       2.20927400      -2.55512600
H       -0.05119100       3.71090400      -0.25762600
H       -1.81555700       3.72475600      -0.56997900
H       -1.19327500       3.18105200       1.00791700
H       -1.91098400      -2.85069000      -0.62717100
H       -1.68759700      -1.16513100      -1.10703800
H       -0.14978400      -2.87111500      -2.29820400
H        0.69681300      -1.52227800      -1.54111900
H        1.09232800      -4.19922600      -0.96265700
H        1.72142100      -2.88826900      -0.18602300
H       -0.56019900      -2.49380200       1.24628800
H       -0.20861200      -0.92396700       0.85929800
C       -1.19819500      -2.02228700      -0.63664200
C        0.10257800      -2.41988200      -1.33302900
N       -0.93458800      -1.66699400       0.77766400
N        0.85966800      -3.33880300      -0.48541600
36
1msa1fa1dma1eda-392
S       -2.11882700      -0.40113300       0.28630700
O       -2.82295000       0.86985700       0.06891300
O       -0.96248900      -0.29272000       1.22996700
O       -1.67591700      -1.07599400      -0.97245700
H       -0.02035600      -1.48351500      -0.75889000
C       -3.28239700      -1.51039300       1.06099000
H       -3.60777100      -1.05869900       1.99821000
H       -4.12603300      -1.63645500       0.38207300
H       -2.78850100      -2.46514100       1.24312600
H        4.76524700      -0.03649400       0.86644300
H        1.76786500       1.56685000       1.13423900
C        3.69065300       0.20220000       0.74897800
O        3.24442200       1.13454900       1.45694600
O        3.05423700      -0.49061000      -0.09258100
N        0.92238900      -1.91405800      -0.62299100
C        1.36942500      -2.50217100      -1.90051000
C        0.82393300      -2.88838400       0.48283000
H        1.63134100      -1.18093400      -0.34198800
H        0.65476600      -3.26252900      -2.22036800
H        1.42304200      -1.71242100      -2.64968600
H        2.35945500      -2.93915000      -1.76519700
H        0.12086700      -3.67663600       0.20624700
H        1.81120100      -3.31207200       0.67281900
H        0.46012700      -2.35906100       1.36339800
H        1.66256800       2.97698400      -0.78086600
H        1.49043700       1.26381400      -1.18768100
H       -0.17251200       2.87766000      -2.35576600
H       -0.90518300       1.49448100      -1.54993500
H       -1.41164000       4.16889800      -0.97896900
H       -1.97920600       2.83174100      -0.19898800
H        0.36945700       2.62308000       1.14980500
H        0.16675500       1.00944400       0.87126500
C        0.98875200       2.11778600      -0.72608700
C       -0.36072400       2.42829100      -1.37495100
N        0.81110800       1.81142100       0.71241000
N       -1.14020800       3.31458600      -0.51141900
