1msa.log
 OpenBabel02281910233D
Gaussian users/kemi/kmacke/programs/G09D/g09/g09 # opt freq wb97xd 6-31++g(d,p)
  9  8  0  0  0  0  0  0  0  0999 V2000
   -0.0881    0.1451    0.0530 S   0  0  0  0  0  0  0  0  0  0  0  0
    1.6190   -0.3539    0.0526 C   0  0  0  0  0  0  0  0  0  0  0  0
    1.7089   -1.3012    0.5827 H   0  0  0  0  0  0  0  0  0  0  0  0
    1.9486   -0.4443   -0.9823 H   0  0  0  0  0  0  0  0  0  0  0  0
    2.1755    0.4327    0.5638 H   0  0  0  0  0  0  0  0  0  0  0  0
   -0.2208    1.3530   -0.7282 O   0  0  0  0  0  0  0  0  0  0  0  0
   -0.6354    0.0544    1.3960 O   0  0  0  0  0  0  0  0  0  0  0  0
   -0.7298   -1.0851   -0.7994 O   0  0  0  0  0  0  0  0  0  0  0  0
   -1.4495   -1.4641   -0.2743 H   0  0  0  0  0  0  0  0  0  0  0  0
  1  7  2  0  0  0  0
  2  1  1  0  0  0  0
  2  5  1  0  0  0  0
  2  3  1  0  0  0  0
  4  2  1  0  0  0  0
  6  1  2  0  0  0  0
  8  9  1  0  0  0  0
  8  1  1  0  0  0  0
M  END
$$$$
