1sa_1msa_2dma.log
 OpenBabel02281910233D
Gaussian users/kemi/kmacke/programs/G09D/g09/g09 # opt freq wb97xd 6-31++g(d,p)
 36 32  0  0  0  0  0  0  0  0999 V2000
   -2.5098   -0.9853    0.4192 N   0  0  0  0  0  0  0  0  0  0  0  0
   -1.8696   -1.5855   -0.1431 H   0  0  0  0  0  0  0  0  0  0  0  0
   -3.6888   -0.6115   -0.3850 C   0  0  0  0  0  0  0  0  0  0  0  0
   -4.3405    0.0268    0.2136 H   0  0  0  0  0  0  0  0  0  0  0  0
   -4.2212   -1.5134   -0.6911 H   0  0  0  0  0  0  0  0  0  0  0  0
   -3.3359   -0.0626   -1.2582 H   0  0  0  0  0  0  0  0  0  0  0  0
   -2.8041   -1.6943    1.6803 C   0  0  0  0  0  0  0  0  0  0  0  0
   -3.4194   -1.0554    2.3157 H   0  0  0  0  0  0  0  0  0  0  0  0
   -1.8519   -1.9055    2.1663 H   0  0  0  0  0  0  0  0  0  0  0  0
   -3.3280   -2.6255    1.4592 H   0  0  0  0  0  0  0  0  0  0  0  0
   -0.6604    1.9810   -0.0995 S   0  0  0  0  0  0  0  0  0  0  0  0
    0.7885    2.0343    0.2202 O   0  0  0  0  0  0  0  0  0  0  0  0
   -0.9525    1.1784   -1.3254 O   0  0  0  0  0  0  0  0  0  0  0  0
    0.1416   -0.0633   -1.6169 H   0  0  0  0  0  0  0  0  0  0  0  0
   -1.5264    1.5671    1.0320 O   0  0  0  0  0  0  0  0  0  0  0  0
    0.5745   -1.8433   -0.4556 S   0  0  0  0  0  0  0  0  0  0  0  0
    0.8532   -0.7561   -1.6242 O   0  0  0  0  0  0  0  0  0  0  0  0
    0.2839   -1.0531    0.7654 O   0  0  0  0  0  0  0  0  0  0  0  0
   -0.6070   -2.6289   -0.8689 O   0  0  0  0  0  0  0  0  0  0  0  0
   -1.9788   -0.1179    0.6500 H   0  0  0  0  0  0  0  0  0  0  0  0
    1.8639   -2.5411   -0.3891 O   0  0  0  0  0  0  0  0  0  0  0  0
    2.6837   -0.8066    0.1426 H   0  0  0  0  0  0  0  0  0  0  0  0
    2.7949    0.1773    0.4402 N   0  0  0  0  0  0  0  0  0  0  0  0
    1.8728    0.6457    0.2903 H   0  0  0  0  0  0  0  0  0  0  0  0
    3.7983    0.8471   -0.4098 C   0  0  0  0  0  0  0  0  0  0  0  0
    4.7748    0.3851   -0.2563 H   0  0  0  0  0  0  0  0  0  0  0  0
    3.8326    1.9049   -0.1472 H   0  0  0  0  0  0  0  0  0  0  0  0
    3.4887    0.7336   -1.4485 H   0  0  0  0  0  0  0  0  0  0  0  0
    3.0696    0.2126    1.8917 C   0  0  0  0  0  0  0  0  0  0  0  0
    4.0172   -0.2881    2.0960 H   0  0  0  0  0  0  0  0  0  0  0  0
    2.2476   -0.3011    2.3895 H   0  0  0  0  0  0  0  0  0  0  0  0
    3.1104    1.2533    2.2152 H   0  0  0  0  0  0  0  0  0  0  0  0
   -1.1181    3.6600   -0.4926 C   0  0  0  0  0  0  0  0  0  0  0  0
   -0.9180    4.2776    0.3833 H   0  0  0  0  0  0  0  0  0  0  0  0
   -0.5176    3.9862   -1.3418 H   0  0  0  0  0  0  0  0  0  0  0  0
   -2.1795    3.6761   -0.7406 H   0  0  0  0  0  0  0  0  0  0  0  0
  1 20  1  0  0  0  0
  1  7  1  0  0  0  0
  2  1  1  0  0  0  0
  3  4  1  0  0  0  0
  3  1  1  0  0  0  0
  5  3  1  0  0  0  0
  6  3  1  0  0  0  0
  7  9  1  0  0  0  0
  7  8  1  0  0  0  0
 10  7  1  0  0  0  0
 11 12  2  0  0  0  0
 11 15  1  0  0  0  0
 13 11  2  0  0  0  0
 16 21  2  0  0  0  0
 16 18  1  0  0  0  0
 17 14  1  0  0  0  0
 17 16  1  0  0  0  0
 19 16  2  0  0  0  0
 22 23  1  0  0  0  0
 23 29  1  0  0  0  0
 24 23  1  0  0  0  0
 25 26  1  0  0  0  0
 25 27  1  0  0  0  0
 25 23  1  0  0  0  0
 28 25  1  0  0  0  0
 29 30  1  0  0  0  0
 29 32  1  0  0  0  0
 29 31  1  0  0  0  0
 33 11  1  0  0  0  0
 33 34  1  0  0  0  0
 35 33  1  0  0  0  0
 36 33  1  0  0  0  0
M  RAD  2  15   2  18   2
M  END
$$$$
