2sa_1msa_1dma.log
 OpenBabel02281910233D
Gaussian opt/gaussian/g09/g09 # opt freq wb97xd 6-31++g(d,p)
 33 29  0  0  0  0  0  0  0  0999 V2000
   -1.0321    1.8360   -0.7695 S   0  0  0  0  0  0  0  0  0  0  0  0
   -1.7745    1.4700    0.4881 O   0  0  0  0  0  0  0  0  0  0  0  0
    0.4119    2.0143   -0.4706 O   0  0  0  0  0  0  0  0  0  0  0  0
   -1.6581    3.4190   -1.2747 C   0  0  0  0  0  0  0  0  0  0  0  0
   -1.3072    0.9016   -1.8800 O   0  0  0  0  0  0  0  0  0  0  0  0
   -0.5056    0.8901    1.6992 H   0  0  0  0  0  0  0  0  0  0  0  0
   -1.8093   -1.8948   -0.0597 S   0  0  0  0  0  0  0  0  0  0  0  0
   -2.8501   -0.9304    0.6303 O   0  0  0  0  0  0  0  0  0  0  0  0
   -0.4724   -1.4212    0.3443 O   0  0  0  0  0  0  0  0  0  0  0  0
   -1.9703   -1.6258   -1.5966 O   0  0  0  0  0  0  0  0  0  0  0  0
   -2.1949   -3.2445    0.2146 O   0  0  0  0  0  0  0  0  0  0  0  0
   -2.5354    0.0182    0.5661 H   0  0  0  0  0  0  0  0  0  0  0  0
   -1.6840   -0.6889   -1.8055 H   0  0  0  0  0  0  0  0  0  0  0  0
    0.3365    0.6843    2.2631 N   0  0  0  0  0  0  0  0  0  0  0  0
    1.0267    0.2820    1.5982 H   0  0  0  0  0  0  0  0  0  0  0  0
    0.0339   -0.3179    3.3092 C   0  0  0  0  0  0  0  0  0  0  0  0
   -0.7061    0.0909    3.9986 H   0  0  0  0  0  0  0  0  0  0  0  0
    0.9544   -0.5544    3.8438 H   0  0  0  0  0  0  0  0  0  0  0  0
   -0.3524   -1.2128    2.8241 H   0  0  0  0  0  0  0  0  0  0  0  0
    0.8932    1.9572    2.7742 C   0  0  0  0  0  0  0  0  0  0  0  0
    0.1793    2.4111    3.4630 H   0  0  0  0  0  0  0  0  0  0  0  0
    1.0710    2.6120    1.9218 H   0  0  0  0  0  0  0  0  0  0  0  0
    1.8334    1.7505    3.2863 H   0  0  0  0  0  0  0  0  0  0  0  0
    2.8137   -0.5780   -0.5485 S   0  0  0  0  0  0  0  0  0  0  0  0
    4.1477   -0.9721   -0.8853 O   0  0  0  0  0  0  0  0  0  0  0  0
    2.4188    0.6267   -1.4820 O   0  0  0  0  0  0  0  0  0  0  0  0
    2.4854   -0.2146    0.8345 O   0  0  0  0  0  0  0  0  0  0  0  0
    1.6321    1.1305   -1.1325 H   0  0  0  0  0  0  0  0  0  0  0  0
    1.8449   -1.7478   -0.9817 O   0  0  0  0  0  0  0  0  0  0  0  0
    0.9732   -1.6799   -0.5171 H   0  0  0  0  0  0  0  0  0  0  0  0
   -1.1329    3.7045   -2.1863 H   0  0  0  0  0  0  0  0  0  0  0  0
   -1.4691    4.1353   -0.4755 H   0  0  0  0  0  0  0  0  0  0  0  0
   -2.7267    3.3122   -1.4604 H   0  0  0  0  0  0  0  0  0  0  0  0
  1  3  2  0  0  0  0
  1  2  1  0  0  0  0
  4  1  1  0  0  0  0
  4 32  1  0  0  0  0
  5  1  2  0  0  0  0
  6 14  1  0  0  0  0
  7 11  2  0  0  0  0
  7  9  2  0  0  0  0
  7  8  1  0  0  0  0
 10  7  1  0  0  0  0
 12  8  1  0  0  0  0
 13 10  1  0  0  0  0
 14 20  1  0  0  0  0
 14 16  1  0  0  0  0
 15 14  1  0  0  0  0
 16 18  1  0  0  0  0
 16 17  1  0  0  0  0
 19 16  1  0  0  0  0
 20 23  1  0  0  0  0
 20 21  1  0  0  0  0
 22 20  1  0  0  0  0
 24 27  2  0  0  0  0
 25 24  2  0  0  0  0
 26 28  1  0  0  0  0
 26 24  1  0  0  0  0
 29 24  1  0  0  0  0
 29 30  1  0  0  0  0
 31  4  1  0  0  0  0
 33  4  1  0  0  0  0
M  RAD  1   2   2
M  END
$$$$
