62
3sa1am1tma2eda-19
S       -2.47084600      -2.20046900       0.59379300
O       -1.03784800      -2.62929500       0.41662600
O       -2.97358700      -1.63129600      -0.67726500
O       -3.30914500      -3.18768800       1.24153200
O       -2.39983500      -0.96719900       1.63182300
H       -2.04853900      -0.14691900       1.17997100
S        3.70729700      -1.41974400      -1.13261400
O        3.48974300      -1.20834700       0.30769800
O        2.57222300      -2.05279100      -1.83075700
O        4.23396600      -0.23306900      -1.83432100
O        4.90086100      -2.52040500      -1.15198600
H        5.10132600      -2.72986300      -2.07427000
S       -0.62503800       1.47485300      -0.53776300
O       -1.56353900       1.30725800       0.63814800
O        0.62277200       0.64805800      -0.26884400
O       -1.30130700       0.88142200      -1.75016300
O       -0.26979500       2.89018900      -0.73700000
N       -0.18355800      -1.64970100      -2.01563600
H       -0.58301200      -0.68449400      -2.02579100
H       -0.52202300      -2.18237600      -2.81097700
H        0.85171800      -1.63137300      -2.01000300
H       -0.51189200      -2.10540100      -1.13442800
N       -4.01717900       1.01551600      -1.18261100
C       -4.75189200       0.77747800       0.08524400
C       -3.85607200       2.46696700      -1.45366100
C       -4.63834000       0.30127000      -2.32453600
H       -3.23077600       2.58768300      -2.33704700
H       -4.84324200       2.90914800      -1.60465900
H       -3.35250300       2.92222600      -0.60108100
H       -4.81987700      -0.29625300       0.24903200
H       -4.18754600       1.23668300       0.89591000
H       -5.74462800       1.22571300       0.00102800
H       -4.65332100      -0.76190300      -2.08743200
H       -5.64840000       0.68679500      -2.47975300
H       -4.02701400       0.47570500      -3.21036100
H       -3.05453300       0.62936900      -1.09607200
C        1.21835000      -1.15412900       3.07899200
N        1.04316700      -1.26665600       1.61187100
C        0.09736500      -0.33461300       3.70629400
N        0.12787200       1.04023100       3.20824500
H        1.91205000      -1.57845700       1.14692700
H        0.84552300      -0.35368200       1.15340200
H        1.24753400      -2.16626900       3.49010000
H        2.18006500      -0.66690800       3.25487100
H        0.26940600      -0.33402000       4.78694200
H       -0.86392900      -0.83285900       3.52517900
H       -0.15505000       1.69273700       3.92857100
H       -0.50439200       1.17830400       2.42002100
H        0.25603500      -1.88849500       1.33518800
C        3.45575100       2.21319300       0.71264100
N        2.95427800       1.93408900      -0.65441600
C        2.46454900       3.15569300       1.39875900
N        2.12530600       4.25197600       0.48964500
H        3.58199300       1.30952500      -1.19105400
H        2.80368600       2.83357000      -1.12081500
H        3.55526100       1.25685300       1.22997800
H        4.44109200       2.67559800       0.61428300
H        2.92859700       3.53005800       2.31611500
H        1.58033800       2.58301100       1.70033800
H        2.20950200       5.15899400       0.92711400
H        1.17711000       4.13786400       0.13664100
H        2.02329200       1.44717600      -0.58853600
62
3sa1am1tma2eda-16
S       -3.88704400      -1.06645100      -0.82238900
O       -3.10747400      -0.13081400      -1.66629600
O       -3.16375400      -2.32333700      -0.55276700
O       -4.48370100      -0.41803700       0.35218800
O       -5.18083700      -1.50278300      -1.69871000
H       -4.90756300      -2.20994900      -2.29841600
S        2.45043100      -1.92302400      -1.03588700
O        2.65242600      -0.61361600      -1.70301000
O        1.00420100      -2.30714300      -1.10818700
O        3.37877600      -2.97701700      -1.39233100
O        2.73385900      -1.65043700       0.53621900
H        2.27237400      -0.81268800       0.83189300
S        0.55392000       1.37056000       0.88664000
O        1.72018300       0.58412600       1.41682800
O        0.86759900       1.77805300      -0.54021300
O       -0.66760400       0.46003100       0.82559800
O        0.26871500       2.54896100       1.72381700
N       -0.32403900      -0.14631100      -2.12565200
H       -1.34459500      -0.16442100      -1.94875700
H        0.12561300       0.63879300      -1.59722200
H        0.12373900      -1.03140500      -1.78523600
H       -0.13538000      -0.05129500      -3.11889300
N        3.70246100       1.77325400      -0.54152000
C        3.53646900       3.00385800       0.27335100
C        4.72867100       0.87131400       0.04032500
C        3.98112700       2.08195900      -1.96511000
H        4.78982400      -0.02499400      -0.57392400
H        5.68416300       1.40046900       0.06121500
H        4.41374100       0.60179600       1.04755100
H        2.72078500       3.58999100      -0.14711100
H        3.27305600       2.71087100       1.28933500
H        4.47407800       3.56377000       0.25801400
H        3.16652000       2.69858100      -2.34568500
H        4.92930500       2.61959100      -2.03425900
H        4.01909700       1.14040700      -2.51152900
H        2.78810000       1.28158000      -0.53385700
C       -3.12572300       2.81888200      -0.28369000
N       -2.99160500       1.86817200       0.84682000
C       -2.05198400       3.89928000      -0.14241700
N       -2.02008900       4.38071600       1.23872200
H       -3.72531800       1.13830200       0.82213800
H       -3.00883100       2.41793900       1.71146900
H       -3.03923500       2.24617300      -1.20818000
H       -4.12756000       3.25188000      -0.22279800
H       -2.28460900       4.70477300      -0.84625800
H       -1.07990900       3.48229200      -0.42874600
H       -2.12203500       5.38381700       1.30680100
H       -1.14829000       4.09659200       1.67981600
H       -2.07306900       1.35361900       0.81751200
C        0.53413000      -2.64218400       2.98969800
N        1.31261900      -3.63443000       2.26168000
C       -0.88964000      -2.61127100       2.43583400
N       -0.82467800      -2.26483100       0.99848000
H        1.58576400      -4.42619800       2.82580700
H        2.12383900      -3.23505400       1.80249400
H        0.48420900      -2.85122000       4.06423000
H        0.97591500      -1.64430600       2.87783600
H       -1.51196100      -1.86467800       2.93519600
H       -1.35769000      -3.59371500       2.52837800
H       -0.61847100      -1.24722200       0.89102500
H       -1.71191000      -2.42907300       0.49251800
H       -0.07070200      -2.78331100       0.52108200
62
3sa1am1tma2eda-15
S       -3.90279900      -1.09823400      -0.83522500
O       -4.62346900      -0.38250300       0.23950300
O       -3.10940200      -0.16713000      -1.67243800
O       -3.16882000      -2.29313100      -0.41629100
O       -5.05629200      -1.70923100      -1.79773300
H       -5.71846100      -1.02138400      -1.94686600
S        2.48547400      -1.88951900      -1.04558300
O        2.65382500      -0.57587200      -1.71405000
O        1.04672000      -2.30216500      -1.10218900
O        3.43153800      -2.92396200      -1.41242900
O        2.78083000      -1.61191300       0.52379500
H        2.30280100      -0.78587100       0.82443800
S        0.54013300       1.36985900       0.89559100
O        0.24831900       2.54425900       1.73639400
O        0.82936200       1.78156500      -0.53495400
O        1.72389000       0.60109200       1.41190100
O       -0.66845600       0.44072300       0.85024700
N       -0.32820300      -0.17220500      -2.12185900
H       -0.13412300      -0.07730500      -3.11411200
H        0.13305100      -1.04869800      -1.77806000
H        0.10506800       0.62104800      -1.59324300
H       -1.34976400      -0.20653300      -1.95340800
N        3.66455700       1.82965200      -0.56502700
C        3.48344700       3.05484500       0.25467700
C        4.71714000       0.94825900       0.00101200
C        3.91753800       2.14699900      -1.99150700
H        4.78857900       0.05478000      -0.61625500
H        5.66148100       1.49736700       0.01070000
H        4.42127900       0.66987300       1.01161000
H        2.64881900       3.62326200      -0.15277800
H        3.24111000       2.75435000       1.27369300
H        4.40817400       3.63532400       0.22707000
H        3.08484700       2.74673700      -2.35968300
H        4.85302600       2.70488400      -2.07206800
H        3.96835900       1.20750600      -2.54039600
H        2.76111900       1.31845800      -0.54668600
C       -3.14488400       2.77148100      -0.26042500
N       -3.01573800       1.80374100       0.85596500
C       -2.09494800       3.87007400      -0.08216100
N       -2.08885300       4.32047800       1.30974300
H       -3.75158600       1.07554000       0.80893600
H       -3.04629800       2.34202700       1.72784600
H       -3.02963900       2.21696900      -1.19280000
H       -4.15580400       3.18486800      -0.21118800
H       -2.33564800       4.68622000      -0.77090200
H       -1.11169400       3.47882200      -0.36545900
H       -2.21556200       5.31910500       1.39925800
H       -1.21332800       4.04835800       1.75117600
H       -2.09118200       1.29806400       0.82978900
C        0.63489600      -2.67970900       2.98339500
N        1.41067600      -3.65192600       2.22686300
C       -0.79834100      -2.65440400       2.45438300
N       -0.76287100      -2.28443400       1.02193100
H        1.69472600      -4.45369400       2.77110200
H        2.21398300      -3.23820600       1.76672800
H        0.60518300      -2.90493100       4.05549700
H        1.06487100      -1.67594300       2.87910800
H       -1.41877600      -1.92227200       2.97706500
H       -1.25530300      -3.64272900       2.53910800
H       -0.56889800      -1.26357400       0.92447600
H       -1.66052200      -2.44172000       0.53485500
H       -0.01525100      -2.79067300       0.52131100
