47
2msa1nta2eda-1
H        3.27197500       1.73258000       1.08613900
H        2.82996700       3.45965000       1.05316500
H        1.58699100       2.31646000       2.80515900
H        0.47202700       2.91307200       1.55653500
H       -0.08759600       0.68320200       2.26788100
H        0.24871200       0.73921900       0.66332600
H        2.77825400       2.85940700      -1.14868700
H        2.25989700       1.31347100      -0.88211000
C        2.47269400       2.44496500       0.86842800
C        1.26838500       2.19625000       1.76775000
N        2.13452500       2.31605300      -0.57730900
N        0.70193600       0.84153300       1.60629600
H       -3.17899700      -3.01140200       0.38468400
H       -3.72946400      -3.67446300      -1.15592700
H       -1.28717700      -4.09497100      -0.75030700
H       -1.53811400      -3.10269600      -2.20423000
H       -0.98725000      -1.95415800       0.47475800
H        0.20717100      -2.20363300      -0.67181700
H       -4.12092500      -1.51021200      -1.86641300
H       -3.96741300      -1.08808500      -0.26932900
C       -3.10441800      -2.89575800      -0.70158400
C       -1.65357200      -3.13325900      -1.11796500
N       -3.51813200      -1.54343500      -1.05518900
N       -0.81224900      -2.06132800      -0.54548700
N       -2.14859600      -0.43559800       2.18820000
O       -1.22983100      -1.30089800       2.08015100
O       -1.84149400       0.69620100       2.64609100
O       -3.30425200      -0.69120300       1.84360400
H       -1.05251700      -1.13629500      -0.94217500
S        2.97393300      -1.28474800      -0.22521600
O        1.96563100      -2.31873500      -0.54281500
O        2.89799600      -0.79211900       1.17832300
O        2.97866900      -0.15182800      -1.19654500
H        1.42581400       0.10229000       1.68412900
C        4.56081400      -2.07792800      -0.39058000
H        4.59717200      -2.90467400       0.31884600
H        4.65240600      -2.44142300      -1.41407300
H        5.33573400      -1.34432400      -0.16859900
S       -1.24343800       1.90797900      -1.28841300
O       -0.57917100       0.64597700      -0.79099700
O       -1.53097700       1.89071800      -2.71623200
O       -0.40648600       3.06931700      -0.82527300
H        1.14089200       2.64890000      -0.77536400
C       -2.78043300       2.03038000      -0.39966100
H       -2.58537300       1.96089600       0.67249500
H       -3.24337500       2.98253000      -0.65997900
H       -3.40061100       1.19503500      -0.72441900
47
2msa1nta2eda-2
H       -0.40358000       2.42909800      -2.19682000
H       -1.48776900       1.62647900      -3.34410100
H       -2.79272000       3.05010400      -1.90851400
H       -3.21850700       1.35133300      -1.57997100
H       -2.85033200       2.92577500       0.36125900
H       -2.25052600       1.39482200       0.49200700
H        0.06069100       0.01646900      -2.55602100
H       -0.15869100       0.48015500      -0.96939300
C       -1.20202900       1.68860000      -2.29202400
C       -2.43227500       2.10535900      -1.49647900
N       -0.65745900       0.37979900      -1.88011800
N       -2.15477600       2.30358800      -0.04595000
H        1.88052600      -2.32397300       2.76023300
H        1.96662900      -3.58511500       1.50303300
H        4.16774000      -2.48292300       1.83164000
H        3.55563400      -2.20677200       0.19586000
H        4.36493500      -0.25732000       1.88357400
H        3.35094900       0.01844000       0.64677300
H        0.00187100      -2.09679100       1.20648700
H        1.01819000      -0.80431700       1.05285900
C        2.04243200      -2.51225900       1.69628700
C        3.39673600      -1.96418600       1.25405800
N        0.96633500      -1.83272900       0.94307800
N        3.46571500      -0.52164700       1.50128800
N        1.86494700      -1.37281700      -2.37576400
O        1.55104300      -0.50566200      -3.23107800
O        3.03625800      -1.64932800      -2.13229500
O        0.91739100      -1.94991600      -1.75005900
H        1.04883500      -2.00968500      -0.08797000
S        1.23909000       2.16919200       0.74973500
O        2.52552500       2.21978800       0.06207200
O        0.50686200       0.86311700       0.56152600
O        0.29927700       3.28371800       0.40496800
H       -1.19642500       2.72349800       0.13675700
C        1.54199100       2.26710900       2.50184500
H        2.03847600       3.21667300       2.70356700
H        0.58687700       2.20653300       3.02411400
H        2.18539700       1.42218200       2.75732400
S       -2.83359200      -1.20856200       0.65367900
O       -2.82412000       0.11830100       1.34294600
O       -1.81220400      -2.13983200       1.17290900
O       -2.80598300      -1.03680300      -0.82467000
H       -1.39459100      -0.33120900      -1.72235600
C       -4.41001500      -1.94819900       1.03421700
H       -4.47558300      -2.07124100       2.11529300
H       -5.19660200      -1.28652000       0.67155900
H       -4.45615600      -2.91473200       0.53247800
47
2msa1nta2eda-3
H        3.79828300      -1.56641600       1.16880900
H        4.61985200       0.00114600       1.40885200
H        2.71585400      -0.31870300       2.98529200
H        2.51999500       1.11671700       1.95117700
H        1.23065600      -1.48610600       1.39058400
H        0.45406200      -0.14611400       2.11913600
H        4.30896700      -0.28514500      -0.89082600
H        2.72644700      -0.79826900      -0.75104600
C        3.69543600      -0.48306600       1.08863200
C        2.55445900       0.02584000       1.96214000
N        3.46043700      -0.15486100      -0.34405900
N        1.23850000      -0.46169200       1.49833200
H       -1.97604100      -1.21118000      -3.57818600
H       -2.40842800      -2.44755200      -2.36842100
H       -4.24516600      -0.71723300      -2.78097300
H       -3.72835900      -0.82653300      -1.09638300
H       -3.60812100       1.46046900      -2.69650200
H       -3.01131100       1.26423700      -1.16188500
H       -0.86078700       0.02196500      -1.82155300
H       -1.24866100      -1.10970700      -0.69919900
C       -2.22324500      -1.38310300      -2.52802300
C       -3.41155300      -0.51761800      -2.09996900
N       -1.05474100      -0.98518400      -1.71748800
N       -3.02343500       0.88682500      -2.10581700
N        1.35295600      -2.94815500      -0.61155000
O        0.53847400      -3.77414700      -1.00013100
O        1.93116400      -3.04056400       0.49852900
O        1.60875000      -1.92592700      -1.34286400
H       -0.17994800      -1.48324400      -1.93365100
S       -2.07067600       0.08111600       1.73736500
O       -2.73710800       1.07579200       0.88205700
O       -0.97151600       0.64244400       2.58104600
O       -1.59035700      -1.12372400       0.99135600
H        0.98510800      -0.02722000       0.57425700
C       -3.29620700      -0.52060500       2.88604700
H       -3.64726000       0.32625300       3.47616500
H       -4.11566400      -0.95511300       2.31299900
H       -2.83193000      -1.27199000       3.52462400
S        1.10715800       2.32996000      -0.81059900
O        1.01534100       2.96386400      -2.11893700
O        2.48690500       2.32918000      -0.20594300
O        0.60354900       0.91042400      -0.78747400
H        3.13570900       0.85691500      -0.43259100
C        0.06665300       3.22040700       0.32904600
H        0.45197100       4.23639800       0.41834100
H       -0.94314300       3.21676500      -0.08205100
H        0.06332300       2.70406000       1.29049500
