34
2sa2dma-02
S       -1.53487900       1.44757800      -0.42699400
O       -1.68704000       0.95431700       0.95031500
O       -0.56855600       2.55170700      -0.57857800
O       -1.32764800       0.36032800      -1.40806500
O       -2.99173700       2.07918900      -0.75242800
H       -2.95472600       2.49745900      -1.62382700
S        1.56629500      -1.50584800      -0.53457900
O        2.95903100      -1.86668800      -0.68535700
O        0.55911200      -2.55284500      -0.82470600
O        1.22813000      -0.85044200       0.77587900
O        1.33325000      -0.33156200      -1.63012700
H        1.55830100       0.72586900       0.78269700
H        0.37096700      -0.12543900      -1.68503600
N       -1.55727400      -1.86762600       0.73708300
C       -2.87745200      -2.15228900       0.13991000
C       -1.29705000      -2.53457300       2.02872200
H       -0.79607200      -2.14468900       0.06737600
H       -3.66103700      -1.81899200       0.82213200
H       -2.94589700      -1.60560500      -0.80049000
H       -2.96721500      -3.22458300      -0.04020700
H       -2.02880600      -2.19813600       2.76503200
H       -1.37041900      -3.61458000       1.89356800
H       -0.28752300      -2.26749900       2.34116400
H       -1.46839300      -0.84193700       0.86115100
N        1.75220000       1.76439600       0.71429800
C        3.09182600       1.94974500       0.11809200
C        1.56073500       2.37935200       2.04301400
H        1.01506600       2.13175900       0.08268700
H        3.83938400       1.51422300       0.78245300
H        3.11079600       1.43014200      -0.84007400
H        3.28538400       3.01479500      -0.02037100
H        2.26267800       1.93410200       2.74971200
H        1.73075500       3.45506600       1.97419500
H        0.53492500       2.18754100       2.35943800
34
2sa2dma-01
S       -2.63308500      -0.17164000       0.11871400
O       -2.50912400      -1.49102600       0.77497900
O       -2.93393100       0.93985800       1.01845900
O       -1.50851700       0.09053600      -0.81120400
O       -3.89034800      -0.30249700      -0.91015600
H       -4.69313000      -0.42412800      -0.38526900
S        2.63307900       0.17160900      -0.11870700
O        2.93400100      -0.93989000      -1.01842200
O        2.50903800       1.49098100      -0.77498700
O        1.50852400      -0.09060100       0.81122000
O        3.89030900       0.30255200       0.91018300
H        4.69310600       0.42409800       0.38530000
N        0.06313700      -2.31122100       0.10435900
C        0.68646300      -3.34356900       0.95605400
C        0.13629100      -2.59458700      -1.34796900
H       -0.92821900      -2.15173000       0.37969400
H        1.74408900      -3.41803600       0.69963700
H        0.58222900      -3.04630100       1.99938700
H        0.18963100      -4.30090400       0.79111200
H        1.18513700      -2.60871600      -1.64598900
H       -0.34396200      -3.55418500      -1.54673000
H       -0.38957900      -1.79387100      -1.86689000
H        0.54953300      -1.40836200       0.29946100
N       -0.06312700       2.31123100      -0.10432100
C       -0.68641500       3.34345400      -0.95617500
C       -0.13629100       2.59483100       1.34796900
H       -0.54955200       1.40836200      -0.29929400
H       -0.18954300       4.30079400      -0.79138200
H       -0.58219000       3.04600200      -1.99945500
H       -1.74403700       3.41799400      -0.69976100
H        0.34392700       3.55447400       1.54659700
H       -1.18513800       2.60896700       1.64598900
H        0.38960100       1.79421000       1.86701200
H        0.92823000       2.15167700      -0.37964300
34
2sa2dma-04
S        0.88523700       2.06192300      -0.29038600
O       -0.50118500       2.43799900       0.05184800
O        1.74398300       1.76203200       0.86247000
O        0.95398100       1.05436800      -1.36877200
O        1.56430400       3.40487100      -0.89381300
H        1.06070400       3.67541200      -1.67361800
S       -0.85084000      -2.02598500      -0.53707700
O       -0.68539400      -3.46323700      -0.54277300
O       -2.22292000      -1.52439100      -0.79934000
O       -0.29913700      -1.32563700       0.67368500
O        0.08022500      -1.50054900      -1.74707400
H        1.30687300      -1.16413200       0.70476800
H        0.22137600      -0.53049400      -1.66094400
N       -2.58784800       0.74725800       0.58658100
C       -3.75981400       1.49272000       0.08875800
C       -2.63006900       0.42538800       2.02806000
H       -2.48049600      -0.14851700       0.03917400
H       -3.83481100       2.44653900       0.61344900
H       -3.62990200       1.67084900      -0.97853000
H       -4.66179500       0.90175600       0.25468300
H       -2.64190500       1.35220600       2.60424800
H       -3.52662500      -0.16022100       2.23792100
H       -1.74246900      -0.16228300       2.26089300
H       -1.73125200       1.30760700       0.39191700
N        2.33362200      -0.93396500       0.81485200
C        3.07600700      -1.35749600      -0.39276600
C        2.81070900      -1.54118300       2.07209000
H        2.33239200       0.10262000       0.88423700
H        2.90746800      -2.42208300      -0.55912000
H        2.69538100      -0.79059700      -1.24102100
H        4.13948400      -1.15774100      -0.24951000
H        2.70207600      -2.62463100       2.00522600
H        3.85780400      -1.28019900       2.23417900
H        2.20305400      -1.16436300       2.89472700
