77
4sa1dma3tma-45
S       -2.02778600       2.27453900       0.43053800
O       -2.98119400       1.32837100       1.03048400
O       -1.74899200       3.48523000       1.20028000
O       -0.58448700       1.51015100       0.47346800
O       -2.30194100       2.53746100      -1.00626300
H       -1.71384800       1.81762500      -2.30290100
H       -0.63157700       0.67085500      -0.04451000
S       -0.60986100      -2.64065800       1.07153400
O       -1.35713100      -1.36084100       1.23281600
O       -1.47688800      -3.81294400       1.04620300
O        0.06632100      -2.52738600      -0.39178500
O        0.53376000      -2.75435900       2.00594000
H        1.90602400      -1.88821500       2.01328100
H       -0.27818000      -1.69869800      -0.83036900
S        2.68002900       0.06347500       1.48655200
O        1.79119300      -0.01460300       0.29015900
O        2.79166400      -1.42583000       2.05414200
O        4.05381500       0.44041100       1.15050300
O        2.06659100       0.89379500       2.55050300
H       -1.02224600      -0.01062800       2.49154200
S       -0.40684300       0.16709500      -2.77804100
O       -0.93389600      -0.36413500      -1.46106900
O        0.94243400       0.73076500      -2.58585200
O       -0.52741100      -0.80621000      -3.85396900
O       -1.39933200       1.35705500      -3.13745000
N       -0.51715500       0.37697900       3.30748000
H        0.43267900       0.62208400       2.94507500
C       -1.17500500       1.59462000       3.83135800
H       -1.17894100       2.36827000       3.06484900
H       -2.20295800       1.35482000       4.10478600
H       -0.62115600       1.93395100       4.70839700
C       -0.36846900      -0.69121000       4.32241700
H       -1.35399400      -0.94767800       4.71454500
H        0.08015900      -1.56433300       3.84977200
H        0.27138500      -0.32404600       5.12587300
N        2.81652800      -1.79753900      -1.58780300
C        3.84152400      -0.82994900      -2.05623700
C        3.39863900      -2.82817700      -0.68709300
C        2.10277200      -2.43208000      -2.72665400
H        2.58170600      -3.42556100      -0.28228600
H        4.08172400      -3.45053100      -1.26914200
H        3.92462300      -2.33470700       0.12875400
H        3.33983900      -0.10221100      -2.69409700
H        4.27352400      -0.33864700      -1.18230300
H        4.60781000      -1.37091900      -2.61573600
H        1.64654300      -1.66156500      -3.34596200
H        2.82957900      -3.00651600      -3.30556700
H        1.33040200      -3.08869300      -2.32851700
H        2.15707100      -1.23327500      -1.00854500
N        1.64415600       2.94792700      -0.59590100
C        3.01069500       2.70447400      -1.12269300
C        0.81486300       3.70211600      -1.57447800
C        1.66815800       3.62799000       0.72896700
H       -0.19212300       3.81641000      -1.17432400
H        1.27460100       4.68061300      -1.72875900
H        0.78074900       3.13440300      -2.50343100
H        3.57033100       2.10984100      -0.39888400
H        2.91129300       2.16342000      -2.06273600
H        3.49583200       3.66940600      -1.28502800
H        2.19494900       2.99294800       1.44132400
H        2.17572000       4.58777400       0.61109000
H        0.63815500       3.77504200       1.05677800
H        1.20088800       2.02562300      -0.45049900
N       -3.58120200      -1.20988000      -0.62702600
C       -4.21451400      -0.15428600      -1.45997600
C       -3.28730500      -2.42860000      -1.42935200
C       -4.38715400      -1.52599600       0.58035500
H       -2.80319600      -3.16479300      -0.78575200
H       -4.23109300      -2.82066900      -1.81437200
H       -2.62612000      -2.14961900      -2.24986200
H       -4.34641500       0.73580600      -0.84751200
H       -3.55380500       0.07209400      -2.29617200
H       -5.17235500      -0.53309700      -1.82301400
H       -4.49287100      -0.61024200       1.16095400
H       -5.36103500      -1.90319100       0.26117100
H       -3.85048500      -2.27763200       1.15885100
H       -2.67938600      -0.84801400      -0.27791800
77
4sa1dma3tma-46
S        1.74927700       1.77542400       1.57442500
O        2.16907200       2.73910400       0.54033600
O        1.37997100       2.34759800       2.86629700
O        0.34693400       1.14707500       1.05656300
O        2.67927800       0.61532100       1.65841100
H        2.11372800      -0.85248000       2.17591100
H        0.43427500       0.80233400       0.12935000
S        0.48246200       0.01441500      -2.66224300
O        0.94830300       0.80596300      -1.48832500
O        1.54738500      -0.19033100      -3.64164800
O        0.08519200      -1.42565900      -2.06412300
O       -0.77636400       0.52812100      -3.24099000
H       -2.23614500       0.69248600      -2.50782900
H        0.64671000      -1.61726200      -1.25225200
S       -2.97195500       0.91154700      -0.50162400
O       -1.90249000      -0.04414200      -0.10459500
O       -3.13853500       0.75613500      -2.08625400
O       -4.28136300       0.57099000       0.05408500
O       -2.55007800       2.31227200      -0.24861800
H        0.70485800       2.99773600      -0.69225300
S        0.98004100      -2.46356400       1.28231700
O        1.55977100      -1.92540200       0.00027400
O        1.15893000      -3.89870300       1.43845200
O        1.86597100      -1.78500500       2.42834100
O       -0.41285300      -1.99949600       1.45403300
N       -0.19173900       3.47927300      -0.86465300
H       -0.96506300       2.82722100      -0.59889100
C       -0.27223600       4.64581200       0.04038400
H       -0.11072000       4.30159700       1.06155600
H        0.50523700       5.36309900      -0.22480300
H       -1.26106500       5.09572300      -0.05641900
C       -0.34503700       3.80554800      -2.29888100
H        0.46794100       4.46435400      -2.60774900
H       -0.32317900       2.87737500      -2.86985100
H       -1.30714000       4.29931000      -2.44174600
N       -2.32259400      -2.69647200      -0.89700400
C       -1.42187800      -3.87687200      -0.95369700
C       -3.35922500      -2.85589200       0.15294700
C       -2.92970700      -2.42382000      -2.22723100
H       -3.93642600      -1.93146700       0.21312200
H       -4.00318900      -3.69742100      -0.11165600
H       -2.84860800      -3.04755700       1.09589100
H       -0.65387300      -3.69165000      -1.70327200
H       -0.96224900      -4.02931400       0.02182000
H       -2.01848700      -4.74811000      -1.23358300
H       -2.12542700      -2.20900800      -2.92986100
H       -3.49355700      -3.30607400      -2.53786600
H       -3.58237300      -1.55531500      -2.14967100
H       -1.78611000      -1.84490200      -0.63006100
N       -1.58818300       0.26341400       2.91439100
C       -1.94634600       1.70485700       3.00106600
C       -2.78911100      -0.60518800       2.96297400
C       -0.60684200      -0.10742300       3.96905600
H       -2.45486900      -1.63534700       2.84946300
H       -3.28069000      -0.46532100       3.92832600
H       -3.45947100      -0.32646700       2.14860600
H       -1.02335800       2.28401300       2.97951100
H       -2.57397500       1.96870900       2.15015400
H       -2.47914700       1.86891200       3.94042000
H        0.25420900       0.55664800       3.88948700
H       -1.08751500       0.01496900       4.94241000
H       -0.30262300      -1.14033100       3.81033000
H       -1.13290700       0.10874800       1.99673500
N        3.85567800      -0.61182700      -0.81069400
C        4.77579400      -0.97931400       0.29668100
C        3.87946200      -1.63606000      -1.89016400
C        4.12758100       0.75221800      -1.33705800
H        3.16935200      -1.34313600      -2.66535600
H        4.89141300      -1.68129200      -2.29862000
H        3.59348100      -2.59390200      -1.45689300
H        4.73041400      -0.20108900       1.05586700
H        4.43986800      -1.92592800       0.72153300
H        5.78491300      -1.07851600      -0.10859100
H        3.95158200       1.47347900      -0.53917000
H        5.16313600       0.78591600      -1.68318000
H        3.43723800       0.94306400      -2.15789700
H        2.90275000      -0.62358800      -0.40768200
77
4sa1dma3tma-38
S       -0.73035400       1.30961000      -2.55675300
O       -0.42842000       1.20774400      -1.08105000
O       -0.95822800       2.69921100      -2.94404700
O       -2.10823400       0.48580000      -2.73257000
O        0.22353500       0.55621900      -3.37184000
H       -2.70933100       0.64260600      -1.95906100
H        0.92917300      -0.35087700       0.38831900
S        1.89260900      -2.28229000       0.59767600
O        1.23654500      -1.06140800      -0.25199000
O        0.81197900      -2.75467300       1.49642100
O        3.03394100      -1.69097000       1.32965100
O        2.26348900      -3.23602500      -0.44667300
H        2.95175400      -0.24334000       2.27884900
H        2.53802100       0.23857900      -1.09909400
S        1.87844700       1.53735400       1.78902400
O        0.63182900       0.72697500       1.56470400
O        2.60675800       1.72720900       0.52355800
O        1.62597900       2.74683500       2.56345900
O        2.79819700       0.62171500       2.73784700
H       -0.14473100      -1.64664300       2.40701800
H       -0.96017700       2.46420500       0.05194300
S       -3.08844100      -0.33820900       0.58919100
O       -2.93195000       0.28759100       1.91546300
O       -3.53191900       0.61863200      -0.45166200
O       -1.56240800      -0.75018300       0.15664000
O       -3.76817000      -1.63272500       0.58639500
H       -1.35169000      -1.96638700      -1.05488000
H       -1.07917700       0.03811600      -0.23810000
N       -0.79349900      -1.24575700       3.11785400
H       -1.25700200      -0.43689000       2.67772100
C       -1.81977100      -2.26897000       3.41953300
H       -2.37077600      -2.49426000       2.50654400
H       -1.31919800      -3.16297900       3.79361400
H       -2.51033200      -1.87454700       4.16552200
C       -0.00743400      -0.81797700       4.29590600
H        0.48594200      -1.69314900       4.72078100
H        0.73993500      -0.09491300       3.97406100
H       -0.67927800      -0.37239300       5.03101900
N       -1.28742800       3.37822800       0.42740500
C       -2.54194100       3.70674600      -0.30278400
C       -1.53013200       3.25476300       1.89034500
C       -0.20168000       4.34431000       0.11357900
H       -0.58297300       3.04070000       2.38523500
H       -1.93973200       4.20308300       2.24646800
H       -2.23837300       2.44069500       2.05032600
H       -2.31847000       3.74674800      -1.36940800
H       -3.26916500       2.91787900      -0.10725000
H       -2.90705000       4.67161300       0.05567700
H       -0.02109300       4.30954200      -0.96152600
H       -0.52433200       5.34276100       0.41702800
H        0.69313800       4.05459700       0.66538800
N       -1.41906600      -2.79427600      -1.68096900
C       -0.26461500      -2.76908300      -2.61836600
C       -1.39649400      -3.97527300      -0.77886000
C       -2.71588400      -2.67445400      -2.39972600
H       -2.25959500      -3.90659000      -0.11529400
H       -1.44940800      -4.88228200      -1.38477900
H       -0.47603200      -3.95408200      -0.19426900
H       -0.24276000      -1.79421800      -3.10989700
H        0.65218500      -2.92632000      -2.04894500
H       -0.39967000      -3.56885000      -3.35036600
H       -2.67496400      -1.78813300      -3.03261400
H       -2.86419200      -3.57353300      -3.00179300
H       -3.50975300      -2.56639100      -1.65900800
N        3.30139300       0.25855200      -1.79369100
C        4.56523400       0.06026200      -1.03395100
C        3.05548800      -0.85131400      -2.75210700
C        3.25658900       1.58608600      -2.46131700
H        2.08477800      -0.68011300      -3.21666600
H        3.85096300      -0.84200600      -3.50051100
H        3.05503500      -1.79282900      -2.20083100
H        4.67382900       0.88740800      -0.33438500
H        4.49153400      -0.87381300      -0.47608400
H        5.39369000       0.02837400      -1.74477100
H        3.32105600       2.35273200      -1.69054800
H        4.09977400       1.65397600      -3.15232000
H        2.31294400       1.66508300      -3.00149900
