1sa_2hom.log
 OpenBabel02281910213D
Gaussian 09 # opt freq 6-31++g(d,p) geom=connectivity wb97xd
 49 46  0  0  0  0  0  0  0  0999 V2000
   -3.5869   -1.3563   -2.1070 C   0  0  0  0  0  0  0  0  0  0  0  0
   -4.2636   -1.8228   -0.7981 C   0  0  0  0  0  0  0  0  0  0  0  0
   -3.8631   -1.0260    0.4479 C   0  0  0  0  0  0  0  0  0  0  0  0
   -4.0388    0.4612    0.2780 C   0  0  0  0  0  0  0  0  0  0  0  0
   -3.0063    1.3506    1.0196 C   0  0  0  0  0  0  0  0  0  0  0  0
   -2.1191   -1.0935   -1.9294 C   0  0  0  0  0  0  0  0  0  0  0  0
   -1.3755   -2.0830   -2.4296 O   0  0  0  0  0  0  0  0  0  0  0  0
    0.0102   -1.8257   -2.2993 O   0  0  0  0  0  0  0  0  0  0  0  0
    0.2622   -2.4119   -1.5543 H   0  0  0  0  0  0  0  0  0  0  0  0
   -3.7407   -2.1031   -2.8881 H   0  0  0  0  0  0  0  0  0  0  0  0
   -5.3426   -1.7573   -0.9579 H   0  0  0  0  0  0  0  0  0  0  0  0
   -4.0295   -0.4115   -2.4324 H   0  0  0  0  0  0  0  0  0  0  0  0
   -4.0201   -2.8729   -0.6152 H   0  0  0  0  0  0  0  0  0  0  0  0
   -4.4986   -1.3275    1.2911 H   0  0  0  0  0  0  0  0  0  0  0  0
   -2.8392   -1.2571    0.7420 H   0  0  0  0  0  0  0  0  0  0  0  0
   -1.6749   -0.1008   -1.3788 O   0  0  0  0  0  0  0  0  0  0  0  0
   -4.9149    0.9709   -0.3762 O   0  0  0  0  0  0  0  0  0  0  0  0
   -2.1648    0.9286    1.7811 O   0  0  0  0  0  0  0  0  0  0  0  0
   -3.1744    2.6232    0.6834 O   0  0  0  0  0  0  0  0  0  0  0  0
   -2.2855    3.4802    1.3756 O   0  0  0  0  0  0  0  0  0  0  0  0
   -1.4727    3.3820    0.8352 H   0  0  0  0  0  0  0  0  0  0  0  0
    0.9012    2.0098   -0.4568 S   0  0  0  0  0  0  0  0  0  0  0  0
    1.7947    2.1557   -1.5947 O   0  0  0  0  0  0  0  0  0  0  0  0
   -0.3151    2.7919   -0.4441 O   0  0  0  0  0  0  0  0  0  0  0  0
    0.5718    0.4786   -0.2672 O   0  0  0  0  0  0  0  0  0  0  0  0
   -0.2344    0.2003   -0.8142 H   0  0  0  0  0  0  0  0  0  0  0  0
    1.6695    2.3135    0.8749 O   0  0  0  0  0  0  0  0  0  0  0  0
    2.5776    1.9008    0.8653 H   0  0  0  0  0  0  0  0  0  0  0  0
    4.4294   -1.2969   -0.1673 C   0  0  0  0  0  0  0  0  0  0  0  0
    4.0926   -1.9992    1.1514 C   0  0  0  0  0  0  0  0  0  0  0  0
    2.6759   -1.7902    1.6900 C   0  0  0  0  0  0  0  0  0  0  0  0
    1.5759   -2.2355    0.7800 C   0  0  0  0  0  0  0  0  0  0  0  0
    0.0987   -2.0400    1.2199 C   0  0  0  0  0  0  0  0  0  0  0  0
    4.2563    0.1981   -0.1349 C   0  0  0  0  0  0  0  0  0  0  0  0
    4.6043    0.7250   -1.3155 O   0  0  0  0  0  0  0  0  0  0  0  0
    4.5235    2.1386   -1.3342 O   0  0  0  0  0  0  0  0  0  0  0  0
    3.5844    2.2743   -1.5883 H   0  0  0  0  0  0  0  0  0  0  0  0
    5.4659   -1.5075   -0.4493 H   0  0  0  0  0  0  0  0  0  0  0  0
    4.2684   -3.0687    1.0010 H   0  0  0  0  0  0  0  0  0  0  0  0
    3.8082   -1.6776   -0.9838 H   0  0  0  0  0  0  0  0  0  0  0  0
    4.7899   -1.6674    1.9262 H   0  0  0  0  0  0  0  0  0  0  0  0
    2.5477   -2.3211    2.6420 H   0  0  0  0  0  0  0  0  0  0  0  0
    2.4911   -0.7372    1.9296 H   0  0  0  0  0  0  0  0  0  0  0  0
    3.8353    0.8402    0.8089 O   0  0  0  0  0  0  0  0  0  0  0  0
    1.7346   -2.7471   -0.3071 O   0  0  0  0  0  0  0  0  0  0  0  0
   -0.8211   -2.3646    0.5178 O   0  0  0  0  0  0  0  0  0  0  0  0
    0.0331   -1.4846    2.4321 O   0  0  0  0  0  0  0  0  0  0  0  0
   -1.2953   -1.3867    2.9130 O   0  0  0  0  0  0  0  0  0  0  0  0
   -1.5893   -0.5212    2.5413 H   0  0  0  0  0  0  0  0  0  0  0  0
  1  6  1  0  0  0  0
  1  2  1  0  0  0  0
  2 13  1  0  0  0  0
  2  3  1  0  0  0  0
  3 15  1  0  0  0  0
  3 14  1  0  0  0  0
  4  3  1  0  0  0  0
  4  5  1  0  0  0  0
  5 18  2  0  0  0  0
  6 16  2  0  0  0  0
  7  8  1  0  0  0  0
  7  6  1  0  0  0  0
  8  9  1  0  0  0  0
 10  1  1  0  0  0  0
 11  2  1  0  0  0  0
 12  1  1  0  0  0  0
 17  4  2  0  0  0  0
 19  5  1  0  0  0  0
 19 20  1  0  0  0  0
 21 20  1  0  0  0  0
 22 24  2  0  0  0  0
 22 25  1  0  0  0  0
 22 27  1  0  0  0  0
 23 22  2  0  0  0  0
 26 25  1  0  0  0  0
 28 27  1  0  0  0  0
 29 34  1  0  0  0  0
 29 30  1  0  0  0  0
 30 31  1  0  0  0  0
 30 41  1  0  0  0  0
 31 43  1  0  0  0  0
 31 42  1  0  0  0  0
 32 33  1  0  0  0  0
 32 31  1  0  0  0  0
 33 47  1  0  0  0  0
 34 44  2  0  0  0  0
 35 34  1  0  0  0  0
 36 35  1  0  0  0  0
 37 36  1  0  0  0  0
 38 29  1  0  0  0  0
 39 30  1  0  0  0  0
 40 29  1  0  0  0  0
 45 32  2  0  0  0  0
 46 33  2  0  0  0  0
 47 48  1  0  0  0  0
 49 48  1  0  0  0  0
M  END
$$$$
