27
1msa1nta1tma-11
S       -1.24307900       1.23547400       0.04886100
O       -0.20303600       1.96520500       0.83145600
O       -2.18168900       0.46476300       0.88147200
O       -0.61896500       0.39432100      -1.02294400
C       -2.17708700       2.49365400      -0.79878900
H       -2.61766400       3.14648200      -0.04499600
H       -1.49551700       3.05210200      -1.44036500
H       -2.95368100       2.00568100      -1.38788000
N        2.65300200       0.50615200       0.02489400
O        1.96443500      -0.36399000       0.54852600
O        3.71645400       0.33709000      -0.52129600
O        2.20650000       1.75979100       0.06207700
H        1.24270500       1.75533300       0.42257200
N       -0.49068100      -2.10914800      -0.08556900
C        0.57193100      -2.88557700      -0.76722700
H        0.47182000      -2.74260500      -1.84371200
H        1.53936700      -2.50834400      -0.43641600
H        0.46119700      -3.94341700      -0.51790900
C       -0.37829700      -2.17690000       1.39545000
H        0.62402600      -1.86525500       1.68310000
H       -1.11201300      -1.48883700       1.81700100
H       -0.57053400      -3.20389800       1.71519000
C       -1.85081500      -2.49496700      -0.53618900
H       -2.56533000      -1.83180200      -0.04721300
H       -1.91261600      -2.36149600      -1.61646900
H       -2.03649400      -3.53833200      -0.27133000
H       -0.38622700      -1.09691600      -0.38241900
27
1msa1nta1tma-12
S       -1.76802100       0.03845200       0.04035500
O       -2.02565500       1.36962600       0.61270100
O       -1.50437000      -1.01915500       1.06130800
O       -0.66351900       0.07295700      -0.97796300
H        0.50426700       0.99606900      -0.43273400
C       -3.22289700      -0.48388100      -0.83950900
H       -4.03878700      -0.55211500      -0.11976900
H       -3.44294400       0.26048800      -1.60456800
H       -3.01775400      -1.45639400      -1.28663300
N        1.39195300      -2.19675700      -0.02547100
O        0.60530400      -2.96846100      -0.52154800
O        2.53599100      -1.97892700      -0.37450000
O        0.99166600      -1.48776200       1.05422900
H       -0.03366300      -1.47523100       1.06208700
N        1.19704100       1.73794100      -0.10711300
C        0.66223200       3.01563700      -0.63698500
H        0.62160600       2.95280600      -1.72476500
H       -0.34656900       3.14616100      -0.24237100
H        1.31318700       3.83704500      -0.32866400
C        1.20221700       1.72826300       1.37866100
H        0.17917800       1.88741300       1.72314500
H        1.55653400       0.75453000       1.71552100
H        1.86160400       2.52279900       1.73605400
C        2.52252600       1.39102000      -0.67151200
H        2.81486900       0.40663100      -0.30220100
H        2.44200900       1.35672600      -1.75852700
H        3.25203200       2.14709700      -0.37192400
27
1msa1nta1tma-15
S        2.10032100      -0.58246600       0.04078500
O        1.68691700       0.00114500      -1.37015000
O        3.06213000      -1.63996600      -0.18841700
O        0.87925900      -0.88607100       0.79500500
C        2.90073500       0.79658500       0.82805800
H        3.77794700       1.05608500       0.23551700
H        2.19184900       1.62576200       0.86408400
H        3.18998500       0.47595600       1.82944700
N       -0.72677800       2.00073800      -0.15952400
O        0.24564000       2.72765000       0.00433600
O       -1.78573900       2.11523500       0.46654200
O       -0.64868100       1.03803800      -1.03194200
H        0.81830800       0.51690200      -1.29197900
N       -2.17063900      -0.91751100       0.02608500
C       -1.69203400      -2.21778900      -0.50559100
H       -1.63237100      -2.15065000      -1.59253100
H       -0.70090500      -2.40739600      -0.09414600
H       -2.39398500      -3.00276500      -0.21544500
C       -2.16498300      -0.89284400       1.51187100
H       -1.15256200      -1.10519500       1.85215500
H       -2.46048500       0.10428300       1.83683300
H       -2.86677000      -1.64570600       1.87886200
C       -3.49389500      -0.53448100      -0.52316400
H       -3.72680100       0.47097000      -0.17292600
H       -3.43366800      -0.53235600      -1.61181600
H       -4.24593000      -1.25170500      -0.18707400
H       -1.50296300      -0.17438800      -0.31950700
