26
1msa1fa1eda-2
S        0.67028200      -1.52183500       0.00037500
O       -0.29268100      -2.36732300      -0.70826900
O        0.15788300      -0.97295200       1.29389500
O        1.18969700      -0.40444700      -0.85971600
C        2.08400800      -2.52211400       0.42425100
H        1.74186300      -3.33110800       1.07000400
H        2.50347800      -2.91909200      -0.50039600
H        2.80978000      -1.89542700       0.94297700
H        2.89844200       3.49050500       0.18632300
H        2.04936800       0.80480300      -0.43436200
C        2.15040100       2.70058700       0.03862500
O        2.70586200       1.56113300      -0.25156500
O        0.95396700       2.93382100       0.14882700
H       -2.22980300       1.75579800      -1.24492900
H       -1.08354000       0.40195300      -1.42035000
H       -3.46131100      -0.41495300      -1.42476400
H       -2.52990200      -1.05842100      -0.07559800
H       -4.59316000       1.01099300       0.07865700
H       -4.33925800      -0.27139600       1.05995600
H       -0.46692500       1.93909000       0.37057300
H       -1.94011800       1.53425000       1.14548200
C       -1.84886700       0.84239200      -0.77913900
C       -2.97098600      -0.14376000      -0.48199300
N       -1.20600100       1.22287700       0.50445500
N       -3.87425100       0.44241900       0.51270400
H       -0.72682600       0.38081300       0.92446400
26
1msa1fa1eda-3
S       -1.83484700      -0.63524700      -0.00945400
O       -1.21009500      -0.48301800      -1.33396400
O       -1.94379000       0.66300900       0.72814500
O       -1.17047500      -1.67279100       0.83503100
C       -3.50695200      -1.20281900      -0.24533400
H       -4.03115300      -0.46325100      -0.85085000
H       -3.46671000      -2.16376200      -0.75829500
H       -3.97530500      -1.30513000       0.73341100
H        0.77484000       3.87963400      -0.44195500
H       -1.25031800       1.93905500       0.22008700
C        0.41481900       2.90213500      -0.09435500
O       -0.87920700       2.84052200      -0.08004100
O        1.20492900       2.02164500       0.22886800
H        1.88693600      -2.22796800      -0.54628100
H        1.17183600      -0.80167500      -1.31895700
H        3.67189300      -0.88688500      -1.69703100
H        3.20086600       0.53178400      -0.75043900
H        4.48993400      -1.87573900       0.29982100
H        4.86726900      -0.30580500       0.56098200
H        0.42393100      -1.16396500       0.96701400
H        2.05096100      -0.86478900       1.47286900
C        1.87294200      -1.13454400      -0.55147800
C        3.27179100      -0.55985500      -0.72871100
N        1.33913500      -0.68764400       0.75940800
N        4.09750100      -0.94787500       0.41787700
H        1.15962400       0.33664200       0.71485400
26
1msa1fa1eda-1
S       -1.22889600      -1.22023000       0.00804100
O       -0.97042200      -0.98707900       1.43607300
O       -0.03039400      -1.70906100      -0.73929600
O       -1.81280900      -0.02781400      -0.68630100
C       -2.45219500      -2.50809600      -0.13406700
H       -2.05074600      -3.40727500       0.33360200
H       -3.35284100      -2.17456000       0.38165400
H       -2.64995400      -2.67597900      -1.19249600
H       -1.39211700       4.15618900       0.43039200
H       -1.98357600       1.39165000      -0.10577700
C       -1.14833800       3.13252700       0.11730500
O       -2.17669200       2.34465900       0.19300400
O       -0.01652300       2.83966800      -0.24999000
H        2.44063200       1.30208600       1.02959900
H        1.21480100       0.04438500       1.35144400
H        3.54455100      -0.88255800       1.58974700
H        2.62661700      -1.66538700       0.29734800
H        4.78076500       0.28482900      -0.06710000
H        4.55701300      -1.15388600      -0.81182500
H        0.82828700       1.37438300      -0.67563900
H        2.24459500       0.66387200      -1.32003200
C        2.03039900       0.34696100       0.69042200
C        3.10509100      -0.72793400       0.59639200
N        1.46407500       0.55150900      -0.66704700
N        4.07656800      -0.34726700      -0.43243800
H        0.91479000      -0.30749500      -0.92142100
