28
1msa1nta1am1dma-11
S        2.20267500      -0.08247600       0.02870400
O        2.25994200      -1.13785000       1.07303500
O        1.85559300       1.26244700       0.56328900
O        1.32109400      -0.47623200      -1.10732200
H       -1.23458500       0.84768100       0.45894900
C        3.85377900       0.07307200      -0.62458600
H        3.84249000       0.83962600      -1.39929300
H        4.51495200       0.36065800       0.19299900
H        4.14981800      -0.89068000      -1.03898200
N       -2.80365100      -0.89082100      -0.02002400
O       -2.99440000      -2.03631200      -0.42969600
O       -3.46985500       0.08499000      -0.36979500
O       -1.82924500      -0.69592300       0.81716100
H       -0.77519400      -1.91956000       0.57948700
N       -0.80929900       1.76194700       0.17258600
C       -1.45252900       2.84034700       0.94700400
C       -0.94222200       1.90360700      -1.29546500
H        0.20787700       1.67907000       0.40290400
H       -2.52229600       2.83608400       0.73336700
H       -1.28986800       2.65594900       2.00895500
H       -1.01349200       3.79973300       0.66852700
H       -1.99921700       1.85613400      -1.55878400
H       -0.50720500       2.85668200      -1.60155600
H       -0.39269800       1.08253200      -1.75762400
N        0.03316400      -2.52703900       0.26075400
H        0.86483900      -2.31712300       0.84444700
H        0.29869800      -2.17919200      -0.66907200
H       -0.22760900      -3.50771500       0.24810600
28
1msa1nta1am1dma-22
S       -2.01548800      -0.12958900       0.22902800
O       -1.51495100       1.04228500       0.99841400
O       -1.82759000      -1.42383100       0.93999700
O       -1.46592300      -0.16991000      -1.15166100
H        1.31909400       1.00828700      -0.37831600
C       -3.77796700       0.10363100       0.09353100
H       -3.95890000       1.04452300      -0.42627000
H       -4.19192400      -0.73430400      -0.46740500
H       -4.19351500       0.13482600       1.10083500
N        2.57527100      -0.97079900       0.09841300
O        1.85629800      -0.48935000      -0.83821000
O        3.26598900      -0.22846400       0.79178900
O        2.53226000      -2.21066700       0.29129800
H        0.99589000      -2.62669600      -0.32876200
N        0.83260100       1.90009500      -0.10360100
C        0.40201900       2.58589800      -1.33899600
C        1.71168000       2.69760900       0.77384700
H       -0.02771600       1.59895200       0.41257600
H        1.27937000       2.82700400      -1.94171900
H       -0.25916000       1.90891000      -1.88113300
H       -0.13352100       3.50027500      -1.07712500
H        2.62016900       2.95962300       0.22999500
H        1.18551000       3.60069900       1.08826600
H        1.98042100       2.09347100       1.63947400
N        0.00091000      -2.63660400      -0.66976900
H       -0.66543600      -2.39213800       0.10023200
H       -0.24342100      -3.52262200      -1.10093000
H       -0.10358100      -1.85955300      -1.33278900
28
1msa1nta1am1dma-33
S        2.01321100       0.01663300       0.02131500
O        2.31632200      -0.98335400      -1.03973500
O        1.17643200      -0.55232300       1.10667600
O        1.44651800       1.28470400      -0.51674100
H       -0.21504700       1.43083000      -0.24116100
C        3.58539900       0.46003900       0.73722900
H        4.03583300      -0.44111600       1.15348800
H        4.21308000       0.87500400      -0.05150600
H        3.40849500       1.19848700       1.51939000
N       -2.36385900      -1.17484000       0.21661400
O       -2.44751400      -2.30151900       0.70458600
O       -2.86394100      -0.17109000       0.77600700
O       -1.73306600      -0.99988000      -0.87818000
H       -0.55960300      -2.16598400      -0.78913000
N       -1.17440300       1.82680800      -0.10004600
C       -1.66146800       2.31430600      -1.40568100
C       -1.08207300       2.86085500       0.94826400
H       -1.80682300       1.05830500       0.22197300
H       -0.95814500       3.05058300      -1.79770600
H       -1.72504300       1.45963300      -2.07845000
H       -2.64865800       2.76223100      -1.28007700
H       -0.38312000       3.63445200       0.62706500
H       -2.06879600       3.29254000       1.12379800
H       -0.71445700       2.39198200       1.86088100
N        0.29308700      -2.70381800      -0.47145700
H        0.39211500      -2.49282200       0.52631000
H        1.13742900      -2.28112700      -0.91634100
H        0.18843500      -3.69968100      -0.63512300
