33
3sa3am-118
S        2.89002500      -1.21299700      -0.01664900
O        2.66434300      -0.37541200       1.20587000
O        4.18287100      -1.84523300      -0.11177000
O        1.70756400      -2.11191700      -0.19845200
O        2.83948400      -0.15941500      -1.23930000
H        1.94458600       0.26884500      -1.25476100
H        0.63418800      -1.83280100       1.18780700
S       -3.28062600      -0.60793800       0.08703700
O       -2.31513700      -1.76278100       0.23918700
O       -4.66611400      -0.99931000       0.06485400
O       -3.08687000       0.26677200       1.42407400
O       -2.80382300       0.24414300      -1.03813800
H       -2.08718600       1.72375500      -0.98180800
H       -2.23571100       0.75597100       1.36912800
S       -0.13601900       1.87035100      -0.20225900
O        0.39218200       0.84575600      -1.15214000
O        0.79189200       2.99543800      -0.02949800
O       -1.43259600       2.47392400      -0.85531800
O       -0.54065500       1.24117600       1.08451500
N       -0.10672500      -1.42528300       1.79322100
H       -1.04246700      -1.68227100       1.40653600
H       -0.02447200      -0.39746500       1.70599500
H        0.00843100      -1.71879300       2.75849900
N        3.28132300       2.16983400       0.72735700
H        3.71083400       2.70788500       1.47540200
H        3.89293600       2.15150900      -0.08737500
H        3.10805800       1.16223900       1.02571100
H        2.35517900       2.58520900       0.45605900
N       -0.53851100      -1.66593200      -1.80592500
H       -1.30268800      -1.85588700      -1.10992000
H        0.35819400      -2.03193900      -1.44036000
H       -0.76718200      -2.04560700      -2.71964200
H       -0.44451900      -0.63676900      -1.83499100
33
3sa3am-26
S        2.86676800      -1.19312100       0.09260800
O        2.70729100      -0.89149500      -1.34644600
O        3.44223500      -0.06014400       0.84500800
O        1.67096900      -1.79585600       0.70762600
O        3.93953200      -2.40241800       0.19981200
H        4.80222100      -2.07898700      -0.09266800
S       -0.24102200       2.23915700       0.12065900
O       -0.50660700       2.20257900       1.57017400
O        0.63271300       3.34175800      -0.32294700
O        0.29654400       0.92471600      -0.34550400
O       -1.60958000       2.48784300      -0.63444200
H       -2.26474500       1.78796800      -0.37003500
S       -3.09795500      -0.93499200      -0.16102700
O       -3.24682400       0.50394100       0.12653300
O       -2.88421300      -1.23703900      -1.58764700
O       -2.13163200      -1.63061200       0.71322500
O       -4.50645200      -1.60744000       0.26364600
H       -5.21956700      -1.10942900      -0.15950600
N        2.90506800       1.99995000      -0.93560200
H        2.08368500       2.63038500      -0.73163300
H        3.68526400       2.51158600      -1.33684000
H        3.19329900       1.49565100      -0.07472900
H        2.59968500       1.24279400      -1.55735900
N       -0.24495100      -0.44066800       2.28926700
H        0.59300100      -0.81769400       1.81282400
H       -0.22492700      -0.66804800       3.27876200
H       -0.30026000       0.59317100       2.14134500
H       -1.07312000      -0.87327800       1.82548200
N       -0.12842700      -1.47131000      -1.51633600
H        0.12562600      -2.05226600      -0.71174100
H       -1.11698000      -1.61857200      -1.78765400
H       -0.02699900      -0.48621000      -1.18532300
H        0.54552600      -1.63623500      -2.26034600
33
3sa3am-45
S        2.86725900      -1.19263900       0.08359500
O        3.34966800      -0.08849800       0.93408400
O        1.68909200      -1.88337200       0.66821700
O        2.70609900      -0.84372800      -1.33458600
O        4.04587100      -2.30296900       0.04638300
H        4.21184500      -2.61115000       0.94791700
S       -3.13944900      -0.91295200      -0.15300100
O       -2.24049200      -1.61135900       0.79754800
O       -3.24681500       0.53201300       0.12899300
O       -2.85648700      -1.27391300      -1.54747000
O       -4.62561900      -1.49654200       0.10118300
H       -5.04106900      -0.96175400       0.79114800
S       -0.21354000       2.22468700       0.10711400
O       -0.46913200       2.17749300       1.55913800
O        0.66899200       3.32221100      -0.33065300
O        0.30384100       0.90812100      -0.37278600
O       -1.58462000       2.49826200      -0.63442300
H       -2.24687000       1.80568200      -0.37104400
N       -0.11394300      -1.48613000      -1.55060800
H        0.24619800      -2.04315200      -0.76746000
H        0.46051700      -1.66648900      -2.36955800
H       -1.12821400      -1.64592700      -1.70890400
H        0.00758900      -0.49257000      -1.25734300
N        2.96666200       1.99737200      -0.88060700
H        3.74961500       2.51045300      -1.27487400
H        2.13112900       2.61927200      -0.71021000
H        2.69156200       1.21804800      -1.49185500
H        3.23800400       1.52175800      -0.00148800
N       -0.21894200      -0.47634700       2.23573700
H       -1.06842800      -0.88490700       1.78472100
H        0.60434000      -0.87343100       1.74963400
H       -0.25193700       0.55955500       2.09497100
H       -0.19221700      -0.70693700       3.22431800
