1sa_1oa.log
 OpenBabel02281910253D
Gaussian opt/gaussian/g09/g09 # opt freq wb97xd/6-31++g(d,p)
 15 13  0  0  0  0  0  0  0  0999 V2000
   -2.1552   -0.1016   -0.0800 S   0  0  0  0  0  0  0  0  0  0  0  0
   -1.1555   -1.0744   -0.4706 O   0  0  0  0  0  0  0  0  0  0  0  0
   -3.5294   -0.2298   -0.4690 O   0  0  0  0  0  0  0  0  0  0  0  0
   -2.0513   -0.0565    1.5228 O   0  0  0  0  0  0  0  0  0  0  0  0
   -1.6821    1.3420   -0.5051 O   0  0  0  0  0  0  0  0  0  0  0  0
   -2.8229    0.4063    1.8826 H   0  0  0  0  0  0  0  0  0  0  0  0
   -0.7028    1.4069   -0.4080 H   0  0  0  0  0  0  0  0  0  0  0  0
    2.0940    0.7547   -0.0282 C   0  0  0  0  0  0  0  0  0  0  0  0
    2.4421   -0.7576   -0.0119 C   0  0  0  0  0  0  0  0  0  0  0  0
    3.1592    1.5105    0.0877 O   0  0  0  0  0  0  0  0  0  0  0  0
    0.9706    1.1909   -0.1330 O   0  0  0  0  0  0  0  0  0  0  0  0
    3.6096   -1.0541    0.1125 O   0  0  0  0  0  0  0  0  0  0  0  0
    1.4659   -1.6118   -0.1308 O   0  0  0  0  0  0  0  0  0  0  0  0
    3.9285    0.9104    0.1605 H   0  0  0  0  0  0  0  0  0  0  0  0
    0.5687   -1.2167   -0.2292 H   0  0  0  0  0  0  0  0  0  0  0  0
  1  4  1  0  0  0  0
  2  1  2  0  0  0  0
  3  1  2  0  0  0  0
  4  6  1  0  0  0  0
  5  7  1  0  0  0  0
  5  1  1  0  0  0  0
  8  9  1  0  0  0  0
  8 10  1  0  0  0  0
  9 12  2  0  0  0  0
 10 14  1  0  0  0  0
 11  8  2  0  0  0  0
 13  9  1  0  0  0  0
 15 13  1  0  0  0  0
M  END
$$$$
