1sa_1oa_2w.log
 OpenBabel02281910253D
Gaussian opt/gaussian/g09/g09 # opt freq wb97xd/6-31++g(d,p)
 21 17  0  0  0  0  0  0  0  0999 V2000
   -1.2039   -0.6459   -0.2811 S   0  0  0  0  0  0  0  0  0  0  0  0
   -0.0916   -1.5774   -0.2190 O   0  0  0  0  0  0  0  0  0  0  0  0
   -2.5231   -1.1519   -0.5898 O   0  0  0  0  0  0  0  0  0  0  0  0
   -1.1933    0.1403    1.0661 O   0  0  0  0  0  0  0  0  0  0  0  0
   -0.9057    0.4591   -1.3786 O   0  0  0  0  0  0  0  0  0  0  0  0
   -1.9868    0.7921    1.1447 H   0  0  0  0  0  0  0  0  0  0  0  0
    0.0406    0.7196   -1.3097 H   0  0  0  0  0  0  0  0  0  0  0  0
   -4.9417    0.1791   -0.0663 O   0  0  0  0  0  0  0  0  0  0  0  0
   -5.6340   -0.3530    0.3336 H   0  0  0  0  0  0  0  0  0  0  0  0
   -4.2678   -0.4354   -0.4019 H   0  0  0  0  0  0  0  0  0  0  0  0
   -3.1911    1.6908    1.2502 O   0  0  0  0  0  0  0  0  0  0  0  0
   -3.1254    2.5655    0.8576 H   0  0  0  0  0  0  0  0  0  0  0  0
   -3.9666    1.2378    0.8385 H   0  0  0  0  0  0  0  0  0  0  0  0
    2.8140    0.7746   -0.3746 C   0  0  0  0  0  0  0  0  0  0  0  0
    3.2683   -0.4432    0.4751 C   0  0  0  0  0  0  0  0  0  0  0  0
    3.7737    1.6575   -0.5257 O   0  0  0  0  0  0  0  0  0  0  0  0
    1.7075    0.9025   -0.8450 O   0  0  0  0  0  0  0  0  0  0  0  0
    4.4078   -0.4290    0.8882 O   0  0  0  0  0  0  0  0  0  0  0  0
    2.4120   -1.3976    0.6936 O   0  0  0  0  0  0  0  0  0  0  0  0
    4.5546    1.3112   -0.0482 H   0  0  0  0  0  0  0  0  0  0  0  0
    1.5174   -1.2789    0.2895 H   0  0  0  0  0  0  0  0  0  0  0  0
  1  2  2  0  0  0  0
  1  4  1  0  0  0  0
  3  1  2  0  0  0  0
  4  6  1  0  0  0  0
  5  7  1  0  0  0  0
  5  1  1  0  0  0  0
  8  9  1  0  0  0  0
 10  8  1  0  0  0  0
 12 11  1  0  0  0  0
 13 11  1  0  0  0  0
 14 15  1  0  0  0  0
 15 19  1  0  0  0  0
 15 18  2  0  0  0  0
 16 14  1  0  0  0  0
 16 20  1  0  0  0  0
 17 14  2  0  0  0  0
 21 19  1  0  0  0  0
M  END
$$$$
