35
1sa1msa1fa1dma1am-1
S       -1.07896200      -1.36913900      -0.14245400
O       -1.13079400       0.00207300      -0.97409100
O       -2.49113400      -1.76161000      -0.07516600
O       -0.19284900      -2.30113700      -0.86578400
O       -0.49056000      -1.01975200       1.18249000
H        1.36923000      -1.94003700      -0.25520400
H       -1.05825300       0.50624800       1.70003900
S        1.92123900       1.69464600      -0.13687000
O        2.69931900       0.87407600       0.82876200
O        0.89546300       2.55406400       0.49975400
O        1.37148000       0.84581900      -1.23583100
H       -0.20559100       0.33147800      -1.14949400
C        3.07672800       2.81355500      -0.90239200
H        3.51022200       3.43614900      -0.11971000
H        3.84750000       2.22506800      -1.40015600
H        2.52956800       3.42248900      -1.62200600
H       -5.53396100       1.45593600      -0.69141200
H       -3.71015700      -0.74035400      -0.50262400
C       -4.63290300       0.95281400      -0.31788100
O       -4.52105800      -0.24617100      -0.81587200
O       -3.87686500       1.50009800       0.46923400
N        2.29941900      -1.79122400       0.19694600
C        3.35683700      -1.99245700      -0.81279200
C        2.38091400      -2.67341000       1.37855700
H        2.33443400      -0.79520000       0.50658900
H        3.28782100      -3.00543900      -1.21213700
H        3.19928800      -1.26568300      -1.61003200
H        4.33245900      -1.83454100      -0.35053900
H        2.32048200      -3.71375700       1.05542600
H        3.32324200      -2.49442800       1.89873800
H        1.53592000      -2.43828800       2.02550200
N       -1.35924200       1.50759200       1.67174500
H       -0.59238900       2.01777700       1.18309200
H       -1.48984400       1.88028500       2.60712800
H       -2.25111900       1.54690900       1.14421700
35
1sa1msa1fa1dma1am-5
S        1.21511300       1.32244100      -0.46652900
O        2.62976500       1.61713600      -0.21281300
O        1.29309000      -0.08068800      -1.25069900
O        0.46347600       1.01001200       0.80523800
O        0.47841200       2.28487000      -1.27464700
H        0.70943100      -0.61420100       1.35723600
H       -2.44213200       1.14613600      -0.13644900
S       -2.13092900      -1.52402900      -0.33056000
O       -2.79189700      -0.33195400      -0.92001700
O       -2.07035300      -1.49874500       1.14651500
O       -0.77717800      -1.77502400      -0.92685900
H        0.40977300      -0.51833300      -1.31564100
C       -3.12679900      -2.92123400      -0.81071100
H       -4.12287200      -2.78338900      -0.38967100
H       -3.16748200      -2.95216600      -1.89946200
H       -2.66303900      -3.82461000      -0.41456500
H        5.59523600      -1.70931900       0.26512300
H        3.83335100       0.50711600      -0.18406300
C        4.63447300      -1.18503800       0.34590900
O        4.68471800      -0.01843300      -0.22890700
O        3.68169700      -1.68890600       0.92148200
N       -2.12909200       1.88246200       0.53592200
C       -2.84039300       1.66524200       1.81362200
C       -2.28770300       3.23060200      -0.04795300
H       -1.11580000       1.66692500       0.67345800
H       -3.90508600       1.85397900       1.66653500
H       -2.68689500       0.62624100       2.10911800
H       -2.44207700       2.34622900       2.56746700
H       -3.34259300       3.40304600      -0.26763700
H       -1.93021100       3.97303700       0.66731300
H       -1.68561700       3.28068500      -0.95422600
N        0.93270300      -1.63243900       1.31048200
H        0.40643400      -1.97596700       0.48825700
H        0.60970900      -2.11052900       2.14585200
H        1.95635300      -1.72321000       1.17039800
35
1sa1msa1fa1dma1am-4
S        1.00001400      -1.55912300       0.48048300
O        0.19468600      -0.76271200       1.61810100
O        0.86147800      -0.71301600      -0.75692100
O        2.37707800      -1.57393200       0.98307100
O        0.35104400      -2.86122900       0.30205700
H       -1.22122400      -2.65532900      -1.05960900
S       -2.90620000       0.32548300      -0.01658400
O       -3.07352800      -0.05770600      -1.44605000
O       -2.17099800       1.60156900       0.16571300
O       -2.32444000      -0.79377000       0.77570700
H       -0.77591200      -0.78875100       1.39714700
C       -4.54323700       0.59953000       0.62656200
H       -5.10950200      -0.32435400       0.50989800
H       -4.45015900       0.86563000       1.67943900
H       -5.00021900       1.41045100       0.05940800
H        5.17634000       1.08688100      -1.22737800
H        3.60043600      -0.84930000       0.15633700
C        4.28045100       0.73859100      -0.69449900
O        4.40795700      -0.50962900      -0.32555300
O        3.32092400       1.46116800      -0.49496000
N        0.55065900       1.97517800       0.06780000
C        0.68106300       3.01201300      -0.97767300
C        1.07123100       2.38128400       1.39228700
H       -0.45721000       1.72498100       0.15330400
H        1.73857400       3.22956200      -1.12326800
H        0.24571500       2.62782800      -1.90021300
H        0.13628700       3.90298400      -0.66218200
H        2.12856900       2.62132600       1.28867000
H        0.50518300       3.24657300       1.74104100
H        0.94395600       1.54258500       2.07607900
H        1.03202700       1.11438500      -0.24530700
N       -1.24048300      -2.02548300      -1.87142600
H       -0.36713600      -1.46364300      -1.74588300
H       -2.05317200      -1.36436800      -1.80430300
H       -1.23545600      -2.55152600      -2.73955000
