21
1msa1nta1ma-11
S       -1.30599000      -0.82717200      -0.00044500
O       -1.33850100       0.00846000      -1.23237100
O       -1.34227000       0.01367900       1.22833200
O       -0.19566700      -1.81912100       0.00375500
C       -2.78833600      -1.81150400       0.00021600
H       -2.78290000      -2.42761300       0.89937400
H       -3.64362300      -1.13581000      -0.00270000
H       -2.78057600      -2.43260800      -0.89547100
N        2.68908800      -0.19592200       0.00037200
O        1.80471100       0.65954900       0.00221200
O        3.87546400       0.01122400      -0.00151100
O        2.30837600      -1.46877300       0.00032000
H        1.27832300      -1.50324300       0.00165600
N       -0.39460800       2.23431600      -0.00116800
H       -0.65058500       1.61124600      -0.79924600
H       -0.65735900       1.60466900       0.79068300
C       -1.12968700       3.51333500       0.00070600
H       -0.87595100       4.07837600       0.89728800
H       -0.86538300       4.08760700      -0.88694900
H       -2.19768200       3.29816000      -0.00668200
H        0.62145500       2.33408400       0.00330600
21
1msa1nta1ma-22
S        1.63858300      -0.54594300      -0.16424200
O        2.08628700       0.76838600      -0.72312700
O        1.40405600      -1.59510000      -1.14767300
O        0.44694000      -0.29121100       0.73634500
C        2.94214800      -1.07853000       0.92599800
H        3.83968500      -1.22299400       0.32421900
H        3.10278000      -0.31099000       1.68271500
H        2.63237600      -2.01831900       1.38332700
N       -2.69427100      -0.61203800       0.01606000
O       -2.34735700       0.51809200      -0.34866000
O       -3.81171600      -1.04827100      -0.05974200
O       -1.77876300      -1.41510800       0.53903600
H       -0.85555800      -0.93679900       0.55299700
N       -0.11872500       2.22873500      -0.56481900
H        0.80586100       1.73098000      -0.74486400
H       -0.33546900       2.85943100      -1.33333800
C       -0.06416800       2.92686300       0.74099200
H       -1.02844800       3.38880300       0.95147700
H        0.16612800       2.17579700       1.49550900
H        0.72111300       3.68153000       0.71284700
H       -0.83828600       1.48644600      -0.52707900
21
1msa1nta1ma-33
S       -1.65780600      -0.39022900      -0.07030100
O       -1.33149800      -0.29721200      -1.49551000
O       -2.22348600       0.86473700       0.51094800
O       -0.47819100      -0.81966500       0.76642100
C       -2.89944300      -1.64479800       0.15146800
H       -3.79106800      -1.33172100      -0.39194000
H       -2.50792900      -2.57720300      -0.25581700
H       -3.10545900      -1.74062800       1.21714400
N        2.66655300      -0.64251700       0.03623400
O        2.30471400       0.48121900       0.40142900
O        3.79140300      -0.94492800      -0.26317500
O        1.75522000      -1.60322500      -0.03698700
H        0.83038900      -1.22720600       0.25120500
N        0.08900700       2.17999800       0.65763000
H        0.71923400       1.37243500       0.79629700
H       -0.89691300       1.80328300       0.76206100
C        0.27143800       2.70895400      -0.71943000
H       -0.36055400       3.58654700      -0.85040000
H        1.32018200       2.95892900      -0.87430000
H       -0.03771500       1.92721400      -1.41472100
H        0.28853300       2.87729300       1.37098400
