46
3sa3am1tma-2
S       -2.53593300       0.93431000      -0.59512500
O       -1.07346400       0.49654600      -0.74043000
O       -3.37919200       0.07478600      -1.47115000
O       -2.91413000       0.71887600       0.84340900
O       -2.64599400       2.37022600      -0.98385900
H       -1.60012100       3.41506900      -0.63553800
H       -1.53873200       0.42523900       1.79824500
S       -0.31011100      -2.68703400       0.37359200
O       -0.70581600      -2.07411300      -1.05837000
O        0.24689000      -3.99688000       0.07242500
O        0.67751700      -1.73173400       0.95628200
O       -1.56106100      -2.68708300       1.17930200
H       -3.00857900      -2.29533900       0.52557500
H        2.37234300      -0.89220300       0.10531200
S        1.77029900       2.12927600       0.52174800
O        0.68059700       2.73807000       1.36385300
O        2.88778100       3.01500600       0.24292300
O        2.10990900       0.79316100       1.04228100
O        1.07646700       1.91249500      -0.92323800
H        0.23071000       1.36804800      -0.83832100
H       -0.87590300      -1.08759400      -0.97082100
N       -0.82791100       4.13463900      -0.40399000
H       -0.26812900       3.75112800       0.39772700
H       -1.22686000       5.04185500      -0.18226800
H       -0.19833900       4.20891100      -1.20114400
N       -3.93252200      -1.91248900       0.18818600
H       -4.32946900      -1.34896800       0.93850500
H       -4.56258900      -2.66130000      -0.08204800
H       -3.75270600      -1.22828700      -0.60940000
N       -0.60762100       0.33755700       2.27372700
H       -0.10934400       1.23601900       2.16245100
H       -0.05383600      -0.41100200       1.79728200
H       -0.72152700       0.10362400       3.25482700
N        3.03393100      -1.24677800      -0.61286300
C        2.34866700      -1.09131700      -1.92447600
C        4.26101900      -0.41223200      -0.54161000
C        3.32354400      -2.67252300      -0.30656300
H        4.66770500      -0.47216500       0.46714200
H        4.98141900      -0.79270000      -1.26899600
H        4.00587000       0.62424400      -0.75642400
H        1.44287600      -1.69788900      -1.92222400
H        2.08719500      -0.03966800      -2.04917200
H        3.02883600      -1.41676000      -2.71455200
H        2.39498300      -3.24411100      -0.32612500
H        4.02842100      -3.05014700      -1.05057700
H        3.76116000      -2.72973800       0.69014100
46
3sa3am1tma-23
S       -2.04175500      -2.01596000       0.30081000
O       -2.11530100      -0.70861300       1.03956900
O       -0.91243600      -2.81920100       0.82302900
O       -1.63746500      -1.59380000      -1.21132900
O       -3.32571200      -2.67101900       0.17006900
H       -0.66448200      -1.42716300      -1.25527700
H       -2.24576700       0.76089700      -0.26767100
S        2.03577300      -1.83300400      -0.40778700
O        1.42312100      -3.28900500      -0.35179000
O        2.24585100      -1.38673200       1.00603500
O        0.98912000      -0.96730200      -1.05031200
O        3.26694900      -1.92087000      -1.17193800
H        0.43615000       0.47219800      -0.47379200
H        0.52810900      -3.24813800       0.08426500
S        0.69448700       2.51625700       0.31552700
O       -0.15094800       1.20691200      -0.15213500
O       -0.35225200       3.51871300       0.48046000
O        1.32983900       2.08923400       1.60879900
O        1.70207700       2.75869900      -0.71869200
H        3.78982800       0.07282000      -1.98833300
H       -0.75002300      -0.42425100       1.95839200
N        3.96797000       1.03974200      -1.71686700
H        3.12532300       1.58770400      -1.88693100
H        4.71382300       1.40776400      -2.29686600
H        4.00996700       1.05237900      -0.06777700
N        3.82430000       0.93839600       0.99797200
H        4.65625800       1.13032800       1.54701200
H        3.49294500      -0.03106100       1.14091000
H        3.03726500       1.55659900       1.27523600
N        0.16479900      -0.29498300       2.45984800
H        0.07230400      -0.56060100       3.43539100
H        0.48853400       0.68613700       2.35136200
H        0.87646000      -0.88894900       1.98636900
N       -3.01348700       1.36191500      -0.61635900
C       -4.13192000       0.46141100      -1.00264300
C       -3.37622400       2.23814800       0.52896400
C       -2.51543500       2.14808800      -1.77462000
H       -2.49995800       2.83266600       0.79397000
H       -4.20378500       2.88429500       0.22867500
H       -3.67374600       1.59899000       1.36023400
H       -3.79050500      -0.19519200      -1.80232200
H       -4.40845400      -0.14611500      -0.14197400
H       -4.97224500       1.07414400      -1.33487500
H       -2.11676500       1.45570900      -2.51581700
H       -3.35114600       2.71266200      -2.19359200
H       -1.73251500       2.82199800      -1.42988400
46
3sa3am1tma-16
S        4.15243700       0.19520800       0.32521800
O        4.63496900      -0.82199700      -0.63067700
O        3.72231900       1.44784900      -0.32244600
O        3.19442300      -0.34940700       1.30467400
O        5.41838900       0.59830800       1.25455600
H        6.05860600       1.07157800       0.70565300
S       -1.78677800       2.35048500      -0.10694200
O       -0.32267400       2.59908300       0.16413500
O       -2.30443500       1.36108100       0.86353600
O       -2.56268600       3.56139100      -0.27500300
O       -1.79894600       1.62304900      -1.54614300
H       -1.71900200       0.62811800      -1.45903500
S       -0.59244100      -1.65563600      -0.59513400
O       -0.97051600      -1.48254900       0.85930200
O       -1.65527100      -1.00268300      -1.43104100
O        0.72024000      -0.88278600      -0.80689300
O       -0.37219500      -3.06858700      -0.93487400
N        1.31527100       1.58602100      -1.72995400
H        1.22615700       1.86313000      -2.70219600
H        0.70024400       2.17193700      -1.11797200
H        0.99749200       0.59996900      -1.58260800
H        2.29138100       1.64444000      -1.38998600
N        2.59778900      -2.67535700      -0.41767100
H        2.37602200      -3.47958300      -0.99884300
H        3.51710500      -2.24267200      -0.62333200
H        1.84696700      -1.92408300      -0.58111700
H        2.56836300      -2.93377900       0.56549000
N        0.56263500       0.57254900       1.82362100
H        0.28333500       1.40541300       1.25774300
H        0.44111700       0.78205800       2.80973900
H       -0.06440400      -0.22051700       1.53554700
H        1.54595600       0.31117600       1.63099700
N       -3.78397800      -1.01915000       0.60276800
C       -3.83714700      -2.47958800       0.33829100
C       -4.17808900      -0.69168300       1.99425100
C       -4.57603200      -0.25493900      -0.39422500
H       -4.04092600       0.37891000       2.14032300
H       -5.21969600      -0.98202600       2.14777700
H       -3.52745900      -1.24424800       2.67253600
H       -3.49770500      -2.65547600      -0.68194000
H       -3.15980700      -2.98073200       1.02846500
H       -4.86451300      -2.82440500       0.47400600
H       -4.16326000      -0.46064400      -1.38119100
H       -5.61804600      -0.57713800      -0.33413400
H       -4.48159500       0.80607000      -0.16919300
H       -2.79117500      -0.73162300       0.50873900
