14
2ma-84
N        1.40902200      -0.25553600       0.71975600
H        0.51395400      -0.69137600       0.49805500
H        2.01468300      -0.96253300       1.12066200
C        1.99749800       0.30283400      -0.49053800
H        1.32546200       1.06676000      -0.89615100
H        2.94111500       0.80266000      -0.25002900
H        2.19524500      -0.42548200      -1.29390300
N       -1.49071000      -0.65509300      -0.35837700
H       -2.19191700      -1.35770500      -0.15180700
H       -1.43500300      -0.57777100      -1.36812200
C       -1.84143100       0.63086600       0.24666100
H       -1.89954600       0.50995500       1.33102300
H       -1.03937300       1.34774100       0.05218500
H       -2.78920900       1.05996200      -0.10829700
14
2ma-113
N       -1.58518000      -0.61047100       0.38875800
H       -1.91269000      -0.57968600       1.34966900
H       -2.08755300      -1.36913800      -0.05546000
C       -1.82705900       0.65660400      -0.30369300
H       -1.30482700       1.45984100       0.23008700
H       -1.38962000       0.60084500      -1.30407600
H       -2.88525700       0.93916600      -0.39127000
N        1.46070700      -0.55148500      -0.51493500
H        2.02539700      -1.39271300      -0.46915400
H        0.52600200      -0.78591700      -0.18338900
C        2.04411300       0.49228100       0.32230200
H        3.03712600       0.74896300      -0.05813000
H        1.42296200       1.39013000       0.26442200
H        2.13744400       0.22888600       1.38888000
14
2ma-21
N       -1.60737300      -0.77271800       0.00834800
H       -0.60112200      -0.93339400       0.05992100
H       -2.03067700      -1.17194200       0.83843700
C       -1.88881800       0.65398800      -0.07946300
H       -1.45751300       1.04873300      -1.00521500
H       -2.96968100       0.81740800      -0.13628000
H       -1.49982500       1.26089700       0.75536900
N        1.55654700      -0.70598900      -0.09504300
H        1.76420100      -0.98246400      -1.04842100
H        2.14462600      -1.26484300       0.51316800
C        1.80247300       0.72151200       0.10306800
H        1.14701300       1.29237300      -0.56012100
H        1.53814300       0.99159900       1.12911000
H        2.83869600       1.03958100      -0.08073600
