18
1sa1am1ma-08
S       -1.20842900       0.13565500      -0.04560100
O       -2.25114400       1.07470500      -0.42705400
O       -0.19390400       0.59955600       0.91547800
O       -1.95678300      -1.06298100       0.78433400
O       -0.56247100      -0.55249100      -1.20582000
H       -2.84269300      -1.15744000       0.41084700
H        0.99394300      -0.69449700      -0.99302600
N        2.01982800      -0.73455800      -0.69267200
H        2.58929600      -1.07001100      -1.46542700
C        2.13750200      -1.59582700       0.50579300
H        3.16898000      -1.60421900       0.86035400
H        1.47579700      -1.18057500       1.26634200
H        1.81635700      -2.60815500       0.26035100
H        2.28756400       0.26258600      -0.45293100
N        2.29389200       1.91853200       0.16671600
H        2.25666000       2.66657900      -0.51855800
H        2.92546700       2.21337900       0.90415100
H        1.35684900       1.81870100       0.56894400
18
1sa1am1ma-09
S        1.17981400      -0.24400000       0.09158500
O        2.52268800      -0.69936700       0.40277600
O        0.26979000       0.04932900       1.20732500
O        1.36818100       1.25669400      -0.59348600
O        0.49442000      -1.03904400      -0.97026900
H        2.21800200       1.25476200      -1.05224100
H       -1.07936400      -0.75997600      -0.91574800
N       -2.08433800      -0.47825500      -0.69600500
H       -2.03117900       0.55745100      -0.46059400
C       -2.56682800      -1.24604800       0.47426400
H       -3.56367100      -0.90529000       0.75689900
H       -2.58840300      -2.30850000       0.23135600
H       -1.85788200      -1.07209800       1.28406900
H       -2.66760800      -0.61733400      -1.51723200
N       -1.51999000       2.12428700       0.14081300
H       -2.11067100       2.89923700       0.42184300
H       -0.80910900       2.47945000      -0.49466900
H       -0.99650900       1.78946300       0.95096500
18
1sa1am1ma-06
S        1.17412800      -0.11629200       0.00896900
O        1.41786800       1.33018300      -0.10238600
O        0.53319200      -0.54625900       1.26305200
O        0.49198200      -0.67633900      -1.18573500
O        2.63963100      -0.81638200       0.07391000
H        3.19865800      -0.38384700      -0.58522300
N       -1.93461000      -0.52316700       0.04178600
H       -1.95050600       0.54050100       0.03368100
H       -1.27464800      -0.77917400      -0.72022700
C       -3.26064400      -1.15449600      -0.04751500
H       -3.15203200      -2.23911000      -0.03984300
H       -3.87066000      -0.84322300       0.80087700
H       -3.74464000      -0.84500900      -0.97391900
H       -1.38946100      -0.77643800       0.87954400
N       -1.46833600       2.24457600       0.00739100
H       -1.66972700       2.77934200       0.84679300
H       -1.76255000       2.80632600      -0.78548100
H       -0.44739100       2.14879900      -0.04957200
