16
1am1eda-70
N       -2.39370600      -0.10688000       0.18571900
H       -3.13689500      -0.48753800      -0.38979300
H       -2.77127400       0.03951300       1.11546700
H       -1.64375500      -0.79970900       0.24516200
C        1.42246700      -0.57190600       0.24031800
C        0.85896600       0.81606000       0.53797800
N        0.23019800       1.38558900      -0.65347400
N        0.37927100      -1.42856100      -0.33208600
H        0.72059000      -2.37673700      -0.44738800
H        0.15903400      -1.07637400      -1.26101300
H        1.77308900      -1.02723000       1.17345600
H        2.28887100      -0.46400800      -0.43028000
H        1.68513800       1.45858600       0.86188200
H        0.15433900       0.74124300       1.38036600
H        0.34187900       2.39112200      -0.68293100
H       -0.76995200       1.18517000      -0.63581700
16
1am1eda-75
N        2.57177700      -0.67759200       0.04374800
H        3.32835800      -0.26263600       0.57661900
H        1.94916300       0.07066100      -0.27279300
H        2.97987700      -1.11583200      -0.77486700
C       -0.57245100       0.92927300       0.60831200
C       -0.88630100      -0.56330000       0.61047600
N       -1.67973100      -0.90605000      -0.57289200
N        0.19668500       1.26651200      -0.58881900
H        0.27785700       2.27030700      -0.70522400
H       -0.29618200       0.89412700      -1.39718800
H        0.02457100       1.16655100       1.49604800
H       -1.51651900       1.49578900       0.68679200
H       -1.38151300      -0.82295000       1.55836100
H        0.05860500      -1.11341400       0.56430400
H       -2.65608100      -0.66049600      -0.44710400
H       -1.63674100      -1.89804100      -0.77193800
16
1am1eda-40
N        2.55556700      -0.72480200      -0.05691000
H        1.95006500      -0.01899300      -0.47994700
H        3.36738300      -0.86390400      -0.64794500
H        2.89082100      -0.34408700       0.82200700
C       -0.44565500       0.84230600       0.67995100
C       -0.86779400      -0.61766700       0.54417300
N       -1.81480700      -0.75885100      -0.56611900
N        0.20914300       1.27859100      -0.55257000
H        0.34737000       2.28270800      -0.56252400
H       -0.39485400       1.03463100      -1.33381500
H        0.26081400       0.93444100       1.51422000
H       -1.33291000       1.44795700       0.93471700
H       -1.27019900      -0.96754300       1.50796900
H        0.02070000      -1.21336500       0.31522900
H       -2.75235600      -0.48957000      -0.28692600
H       -1.85546000      -1.71467800      -0.89853400
