28
2sa1am1dma-07
S        2.26142300      -0.10363800      -0.23228700
O        1.89489700       1.31633500      -0.19913000
O        2.54616800      -0.70178300       1.09144000
O        1.34404700      -0.95821500      -1.01612100
O        3.66650200      -0.07914700      -1.03163100
H        3.99077800      -0.98659900      -1.11200600
S       -2.05749200      -0.93602600      -0.21591000
O       -1.44801700      -0.24590100       0.99912900
O       -1.72770300      -2.36753800      -0.17446700
O       -3.43021000      -0.54696100      -0.45109500
O       -1.23773400      -0.29269300      -1.45426300
H       -0.29471000      -0.58421700      -1.40788500
N       -0.64686100       2.23059900       0.28642500
C       -0.38467600       3.09905300       1.45208900
C       -1.54351500       2.81608800      -0.73488000
H        0.26643500       1.95704500      -0.12420800
H       -1.32465000       3.30082800       1.96752700
H        0.30609000       2.58305800       2.11869700
H        0.06562300       4.03359500       1.11449700
H       -2.50794600       3.03401500      -0.27444900
H       -1.09649200       3.73095100      -1.12704500
H       -1.67739300       2.08051900      -1.52743700
H       -1.04696600       1.31358000       0.61680100
N        0.30838200      -2.18476300       1.69263600
H        1.25909100      -1.79084000       1.51581200
H        0.27995000      -2.77192100       2.52015500
H       -0.35854600      -1.38070700       1.75456400
H       -0.04927300      -2.68916400       0.86854900
28
2sa1am1dma-08
S        2.24827200      -0.55111600      -0.26824500
O        2.17143200      -2.03360800      -0.23728800
O        1.43997700       0.00006700       0.88032700
O        3.56561900       0.02450500      -0.41446200
O        1.43981700      -0.06883000      -1.57683600
H        0.49260300      -0.32439600      -1.49716200
S       -2.20749900      -0.42168700      -0.15830200
O       -2.08476600      -1.74053300       0.49760300
O       -2.25262100       0.71840100       0.76828600
O       -1.25509500      -0.24492700      -1.27199600
O       -3.68388800      -0.40151600      -0.81973500
H       -3.75259700      -1.14394100      -1.43585400
N        0.02500700       2.23892900       0.44105600
C        0.32311100       3.17340800       1.54424100
C        0.15971800       2.82586000      -0.91081800
H        0.65633500       1.39946600       0.53778200
H       -0.37434000       4.01192500       1.51168100
H        0.21831300       2.64355600       2.49086200
H        1.34693800       3.53481800       1.43886800
H       -0.45522400       3.72542400      -0.97328000
H        1.20773700       3.06664100      -1.09187300
H       -0.17544400       2.08805700      -1.63783000
H       -0.92636300       1.83428900       0.55713900
N        0.29699200      -2.46386600       1.59125200
H        1.02246100      -2.50549300       0.81863400
H        0.57589800      -1.64884100       2.14076700
H       -0.64349600      -2.25848700       1.17563800
H        0.28003400      -3.30770300       2.15548000
28
2sa1am1dma-09
S       -2.13591400      -0.37326400      -0.24128000
O       -2.00450000      -1.84068200      -0.34318900
O       -2.03326100       0.16444800       1.11191100
O       -1.26406300       0.33149000      -1.22333800
O       -3.65410600      -0.02623200      -0.68783700
H       -3.81480100      -0.41672700      -1.55813700
S        2.18220300      -0.62907700      -0.14816200
O        2.05798000      -2.10394400      -0.20063600
O        1.32714600      -0.10024600       0.97340700
O        3.52081700      -0.08569400      -0.20038200
O        1.47283900      -0.04636300      -1.48706800
H        0.50262100      -0.19624000      -1.46791100
N        0.18283300       2.23470500       0.27757400
C        1.18800600       3.02950100      -0.46407500
C       -0.54783900       2.97825300       1.32573600
H       -0.48556300       1.79686200      -0.38074100
H        1.93767900       3.39307300       0.23973300
H        1.66166700       2.37945700      -1.19972500
H        0.69508800       3.87066600      -0.95411800
H        0.16581700       3.32709200       2.07347000
H       -1.05635500       3.83172000       0.87406400
H       -1.27483200       2.30085400       1.77279800
H        0.65908500       1.39103600       0.69143000
N       -0.02603900      -2.52897000       1.41682700
H       -0.87515600      -2.45523800       0.81428100
H        0.10580700      -1.61560300       1.86518200
H       -0.09926300      -3.27708100       2.09860600
H        0.81620200      -2.62128700       0.78843300
