39
2msa1fa1eda1am-1
S       -2.95783200       0.46170500      -0.31390900
O       -2.56500000       1.61770800       0.52790800
O       -2.92183600      -0.83722500       0.41493200
O       -2.17664200       0.39472500      -1.58024100
C       -4.66056000       0.72490600      -0.76214100
H       -5.24495700       0.77355400       0.15667700
H       -4.72405400       1.66423100      -1.31144200
H       -4.98428500      -0.11059600      -1.38275600
S        2.46914500      -0.79654400      -0.51522800
O        3.42519200       0.31006600      -0.67183700
O        1.97898200      -1.36420700      -1.80153100
O        1.32188000      -0.45698900       0.38998800
C        3.32210100      -2.12698800       0.31380400
H        4.13900300      -2.45610900      -0.32884700
H        3.70787200      -1.74919500       1.26112300
H        2.60666200      -2.93416300       0.47765700
H        0.47311500      -2.45054300       2.70998900
H       -1.80192400      -1.16540800       1.56323000
C       -0.29983300      -2.30275200       1.94608600
O       -1.10204300      -1.32039800       2.26172000
O       -0.37091500      -3.00750300       0.95176300
H        0.37032700       3.85980400       1.17261700
H        0.66651600       2.46181100       2.23395700
H        2.80025300       3.70460700       1.49039700
H        2.78588800       1.97116400       1.14300500
H        2.92312700       4.04453300      -0.76345100
H        3.01459400       2.40336900      -0.97136000
H       -0.87231000       1.95681000       0.36225800
H        0.41159000       2.34971900      -0.68019700
C        0.83464700       2.87236300       1.23645600
C        2.32440800       2.92805400       0.88223100
N        0.16193100       1.99723100       0.25077200
N        2.48100400       3.16060600      -0.55172200
H        0.54792700       1.02310500       0.30787400
N       -0.67049800      -1.94340400      -1.61494200
H        0.34462800      -1.72431200      -1.77570500
H       -1.23640700      -1.06963900      -1.66305300
H       -1.00456500      -2.61173500      -2.30253600
H       -0.75259400      -2.34752300      -0.66224500
39
2msa1fa1eda1am-4
S        2.81357000       0.46832500      -0.17813000
O        2.81449100      -0.97195400       0.20101300
O        2.46117000       1.37229900       0.94291500
O        1.98223200       0.70786800      -1.39082500
C        4.49589100       0.85545900      -0.61636100
H        4.53415600       1.89934900      -0.92783800
H        5.11722300       0.69166400       0.26407600
H        4.79776100       0.19604900      -1.43001500
S       -2.49732100      -0.76422200      -0.34785400
O       -2.15708300      -1.03486800      -1.77449600
O       -3.47945000       0.30918800      -0.15404300
O       -1.24554900      -0.56867600       0.45759300
C       -3.20835600      -2.27609900       0.27961000
H       -4.10453600      -2.49664000      -0.30083100
H       -2.46607400      -3.06797000       0.16780600
H       -3.45952900      -2.12301000       1.32961800
H       -0.31474900      -3.24727800       2.29054000
H        1.81796200      -1.61885900       1.32235800
C        0.37297500      -2.86852600       1.52422600
O        1.20564200      -1.99348200       2.01939800
O        0.33148300      -3.26309800       0.36925400
H        0.24059200       3.50578200      -0.28293100
H       -0.29825700       2.05756900      -1.14493600
H       -2.08240000       3.86026100      -1.11911200
H       -2.61209900       2.37218600      -0.31892700
H       -1.88331700       4.87034600       1.00655600
H       -3.12403600       3.84443500       1.31002300
H        0.76427600       1.72512000       1.09165700
H       -0.67518300       2.39483200       1.72809400
C       -0.48959500       2.69179700      -0.27825300
C       -1.92145500       3.21758400      -0.24453600
N       -0.25296500       1.88563200       0.94434000
N       -2.15059000       3.89283400       1.03601300
H       -0.71208500       0.94422600       0.84710000
N        0.49606000      -1.61006700      -1.88202800
H        1.04822000      -0.73675600      -1.75856000
H        0.80514300      -2.10367500      -2.71370900
H        0.62756400      -2.21133800      -1.04594500
H       -0.52839200      -1.38023400      -1.94213700
39
2msa1fa1eda1am-8
S        1.89580300      -1.51906300       0.09548700
O        0.99086100      -2.38893900       0.88150400
O        2.42395600      -0.37738200       0.89711000
O        1.28122200      -1.04934300      -1.17610300
C        3.29933500      -2.52274000      -0.34990500
H        3.76800800      -2.87488100       0.56913500
H        2.94149800      -3.36139700      -0.94723000
H        3.99055600      -1.90760800      -0.92690300
S       -2.51056300       1.92916000      -0.02030500
O       -3.56091800       0.96099000      -0.37128800
O       -1.83041600       2.57772600      -1.16308600
O       -1.49762900       1.31596000       0.92521100
C       -3.29042200       3.23515700       0.91265400
H       -4.02642500       3.71017900       0.26347500
H       -3.77379500       2.79338700       1.78401800
H       -2.52630600       3.95130600       1.21494100
H        5.41463000       2.70194100      -0.12765800
H        3.73480300       0.51136300       0.63429200
C        4.45326700       2.18400900      -0.01906200
O        4.60504100       0.99877500       0.51382000
O        3.40361300       2.69482400      -0.37053900
H       -2.72354700      -1.10011800      -0.94890500
H       -1.02931600      -1.59212200      -1.22044000
H       -2.61714200      -3.48351800      -1.71344800
H       -1.51385400      -3.86922100      -0.38477600
H       -4.31550600      -3.05710100      -0.06017200
H       -3.58750300      -4.42106200       0.48300800
H       -1.60680900      -0.38778700       0.92791400
H       -2.32943700      -1.86283900       1.37419600
C       -1.92608800      -1.77307000      -0.62486000
C       -2.35572500      -3.23277900      -0.67703200
N       -1.61064000      -1.42603200       0.78734200
N       -3.44031100      -3.43905300       0.28430400
H       -0.67350100      -1.80497500       1.03072700
N        0.77712600       1.67445200      -0.65964700
H        0.12942800       2.21502100      -1.24593600
H        0.92709900       0.72494700      -1.04635000
H        1.69645000       2.12381800      -0.51938900
H        0.26555800       1.55918100       0.22878400
