61
4sa2am1tma1eda-23
S        4.09809300      -1.30402400      -1.19971300
O        2.92907200      -1.04859200      -2.05853800
O        4.52598800      -0.12327100      -0.41675300
O        3.99076000      -2.52749000      -0.38733900
O        5.26654000      -1.56612400      -2.28718200
H        6.08364700      -1.76981200      -1.81128100
S        2.45553600       0.89299600       2.07800900
O        1.59890400       0.28155600       1.00702300
O        2.88666900       2.25180800       1.69328200
O        1.82192800       0.78672800       3.39510800
O        3.75076700      -0.02196700       2.16073900
H        4.16091500      -0.06676500       1.25582000
S       -2.00270200       2.40760200      -0.51303300
O       -0.85871700       2.01067000       0.40434500
O       -3.23175200       2.66747900       0.22710800
O       -1.54919700       3.40907700      -1.47713100
O       -2.23922500       1.07338000      -1.39035500
H       -2.37002400       0.31897200      -0.72371300
S       -1.91224400      -2.05142400       0.36250000
O       -2.93506800      -3.07542200       0.10805400
O       -2.61902500      -0.67244900       0.42048300
O       -1.21025400      -2.21135800       1.67920900
O       -0.88239600      -1.96727300      -0.73244100
N        1.41417600      -2.49637600       0.70102000
H        1.09619000      -3.06187900       1.48473800
H        1.50507800      -1.50940900       1.00933800
H        2.32789800      -2.79347100       0.31983800
H        0.64846400      -2.49626400      -0.00731400
N       -0.90832500       0.34886200       2.66299800
H       -1.01667400      -0.65095200       2.36121700
H        0.02295500       0.49883500       3.09066600
H       -0.98736800       0.95088100       1.81759500
H       -1.64866000       0.59149300       3.31461000
N       -5.14008200      -0.82639000      -0.26365300
C       -4.96094300      -1.09133500      -1.71336700
C       -5.87529400      -1.92519100       0.40584500
C       -5.73794100       0.50750100      -0.01239300
H       -5.93886800      -1.70486300       1.47197400
H       -6.87885600      -2.00066700      -0.02009100
H       -5.30919100      -2.84587500       0.26224000
H       -4.38377200      -0.27237900      -2.14521800
H       -4.41130500      -2.02788600      -1.81839500
H       -5.94061600      -1.15826100      -2.19245800
H       -5.06774200       1.27865200      -0.39688900
H       -6.71696900       0.56116500      -0.49455400
H       -5.84376100       0.64698300       1.06373700
H       -4.14867500      -0.80808800       0.13277700
C        2.03039800       2.20502300      -1.62381600
N        1.48436500       2.99596600      -0.47836500
C        0.94907000       1.41785300      -2.35048200
N        0.57752600       0.21028500      -1.57124300
H        1.30272600       3.96433300      -0.73323500
H        2.12935000       2.93065600       0.34405600
H        2.50656100       2.89546600      -2.32060200
H        2.80058500       1.53619000      -1.22971400
H        1.34371900       1.07348900      -3.30729200
H        0.05325600       2.01998900      -2.51768100
H        1.37416800      -0.45531300      -1.61241700
H       -0.27411000      -0.25681000      -1.89408100
H        0.41234400       0.43065800      -0.57981700
H        0.56450800       2.61498000      -0.12299700
61
4sa2am1tma1eda-26
S       -4.53175200      -1.13140000       0.58841500
O       -5.03324300       0.10130800      -0.04000500
O       -4.08658700      -2.15536500      -0.37255800
O       -3.57748400      -0.91291800       1.69436000
O       -5.80483900      -1.75835800       1.37112600
H       -6.56100500      -1.74921900       0.76835000
S        2.98704000       1.74139500       0.98116800
O        1.64986300       2.41532800       0.85475900
O        3.47892700       1.36244700      -0.36287300
O        3.94058000       2.42227700       1.83696300
O        2.67323100       0.34842400       1.73975600
H        2.00881500      -0.14343400       1.16660600
S       -2.36990800       1.97539300      -1.34657900
O       -1.72088800       0.68194400      -0.91777200
O       -2.53484500       2.86056500      -0.18240100
O       -1.67079000       2.56295500      -2.49443100
O       -3.80090600       1.57315200      -1.90104300
H       -4.29503000       1.07197500      -1.19952200
S        1.20209800      -1.64513600      -0.85671900
O        2.59635200      -2.09553900      -0.61709000
O        0.82275700      -0.67829100       0.28916900
O        1.06034900      -0.89877900      -2.13991200
O        0.22816500      -2.77569100      -0.79289700
N       -1.93985800      -1.76009800      -2.10259200
H       -2.81905000      -2.03432300      -1.63214700
H       -1.78434600      -0.75716200      -1.86366900
H       -1.13154700      -2.29390800      -1.69850200
H       -1.98849400      -1.88390500      -3.10873500
N        1.01744100       1.82942300      -1.88856700
H        0.11235800       2.19667800      -2.23282700
H        1.16425000       2.08286300      -0.89420700
H        1.02813200       0.78214900      -1.96895200
H        1.80075800       2.20928900      -2.41253300
N        5.08491100      -1.21801600      -0.31848400
C        5.43247000      -0.62890800      -1.63681000
C        5.72601200      -0.48737300       0.80518700
C        5.39458900      -2.66953600      -0.27132700
H        5.30450400      -0.84846100       1.74281200
H        6.80188100      -0.67369600       0.77028900
H        5.51550300       0.57551200       0.70600200
H        4.87008000      -1.16013500      -2.40508600
H        5.13810200       0.41925100      -1.62038000
H        6.50697000      -0.73663500      -1.80153600
H        4.82640000      -3.17036500      -1.05348700
H        6.46876200      -2.80850300      -0.41141300
H        5.08398000      -3.06068700       0.69719400
H        4.04351100      -1.16303600      -0.24648000
C       -0.62371300      -0.44553800       3.06381400
C       -1.27321100       0.90283400       2.78300400
N       -0.81120000       1.51119000       1.51689000
N       -0.95988500      -1.44275500       2.01086300
H       -0.74460500      -2.39208500       2.30925500
H       -0.33584700      -1.24469200       1.16503400
H        0.46564600      -0.35938600       3.10869400
H       -0.99401600      -0.80757000       4.02459400
H       -1.02830800       1.58547200       3.59864300
H       -2.35791000       0.79359000       2.71743000
H        0.19026000       1.81345300       1.49633100
H       -1.40212000       2.31751400       1.25143300
H       -1.97690800      -1.39160600       1.76350000
H       -0.95225800       0.89228300       0.69155200
61
4sa2am1tma1eda-29
S       -1.54948200      -1.00712800       2.61146400
O       -0.76374300      -2.25552100       2.71255000
O       -1.88537700      -0.34486200       3.85439300
O       -0.57159900       0.05390500       1.85251800
O       -2.71348700      -1.16007900       1.68048900
H       -2.67240600      -2.21558800       0.38010700
H        0.04847200      -0.42028500       1.25589800
S        0.84423900       1.96311500      -1.82435500
O        0.74152000       1.10388600      -3.01997200
O        0.41448900       3.34802200      -1.97102400
O       -0.19620000       1.35078700      -0.75458700
O        2.18435100       1.84239100      -1.17204800
H        2.84881000       0.42516900      -1.26484300
H       -0.28094100       0.36360400      -0.86496900
S        2.78241000      -1.40353500      -0.08420200
O        3.95218100      -1.68394100       0.72753700
O        2.17276600      -2.60607000      -0.73627600
O        1.73721300      -0.61302500       0.63039400
O        3.22110600      -0.51171300      -1.33139700
S       -1.90305100      -1.70676600      -1.55022600
O       -1.62462100      -2.54488500      -2.71991200
O       -0.64291500      -1.20954100      -0.91825900
O       -2.89298900      -0.63740400      -1.73776500
O       -2.49921300      -2.73470400      -0.45893200
N        0.04213700      -3.73593900       0.59375700
H        0.82726000      -3.28464300       0.06708900
H        0.30189600      -4.67974400       0.86667100
H       -0.18885400      -3.16272300       1.44333500
H       -0.80980700      -3.74375000       0.02105700
N        1.06341200      -1.65669000      -3.18779600
H        0.98994700      -0.61737800      -3.10783200
H        1.50308500      -2.02753400      -2.32143300
H        0.11086700      -2.05329500      -3.26019300
H        1.63025900      -1.89762100      -3.99593400
N        2.20791500       1.75899000       1.87860600
C        2.12218700       1.09987100       3.20958100
C        3.60869200       2.12227500       1.53955400
C        1.28151800       2.91398400       1.76594600
H        3.61656300       2.55479300       0.53994300
H        3.97721900       2.83632000       2.27900700
H        4.21308100       1.21353400       1.55575300
H        1.08335400       0.83114400       3.39789700
H        2.73424300       0.19804500       3.18386200
H        2.48892300       1.79325200       3.96918400
H        0.26190600       2.55585700       1.90496800
H        1.54164500       3.64613100       2.53373800
H        1.38531400       3.34534200       0.77114600
H        1.92461000       1.03568800       1.18627000
C       -3.04623200       3.46515800      -0.77193700
N       -1.86840200       3.88686800      -0.01994300
C       -3.80892700       2.40917300       0.02802100
N       -2.88823600       1.27598800       0.27517600
H       -2.00561100       4.78533800       0.42527800
H       -1.04931100       3.93485800      -0.62252300
H       -3.73172100       4.28694600      -1.01001400
H       -2.72591700       3.02857300      -1.72387900
H       -4.68378300       2.03436100      -0.50724200
H       -4.12142100       2.80893500       0.99536400
H       -2.79378300       0.67654100      -0.56924400
H       -3.16421200       0.62234200       1.02129500
H       -1.95461500       1.64953900       0.50008600
