38
1sa1msa1nta1am1tma-1
N        0.65859700      -2.28833800       0.61445600
H        1.16567900      -2.73705000       1.37223300
H        0.83034900      -1.26065800       0.62608600
H        1.01327200      -2.62341500      -0.28027800
H       -0.38768600      -2.43427400       0.66512400
N       -0.98652100       2.45716200       0.75454500
C       -0.01833800       3.56330200       0.54356900
H        0.86669100       3.37502500       1.15199600
H        0.26063000       3.57437100      -0.50989100
H       -0.48731200       4.50500400       0.83640500
C       -2.16863500       2.58559900      -0.14043400
H       -1.81654700       2.53455800      -1.17028100
H       -2.84084800       1.75416900       0.06592000
H       -2.65399800       3.54308800       0.06314100
C       -1.37964000       2.31983700       2.17997300
H       -2.02147200       1.44274600       2.26953900
H       -0.47626800       2.19266700       2.77797900
H       -1.90757400       3.22437800       2.48997100
H       -0.47460400       1.58296900       0.49256600
N        4.20733500      -0.82302000       0.83044500
O        3.32858800      -1.66463400       0.68190200
O        5.04336800      -0.80445200       1.69749300
O        4.25882200       0.18300700      -0.05031400
H        3.47321400       0.08811800      -0.68783100
S        0.93444300       0.45145000      -1.38422800
O        0.74808900       0.42943900       0.11612900
O        0.34334100       1.65037600      -1.96728400
O        2.33160600       0.16691400      -1.74998000
O        0.14907900      -0.83441800      -1.90721500
H       -0.82263600      -0.76379000      -1.65565300
S       -2.80940200      -1.25721300       0.20427900
O       -2.97596200      -0.24663200       1.26510500
O       -1.99997000      -2.43721500       0.62681600
O       -2.31537200      -0.66460500      -1.07414500
C       -4.42719800      -1.91001900      -0.15848500
H       -4.32557800      -2.66213700      -0.94071900
H       -4.82402300      -2.35208900       0.75545400
H       -5.05767900      -1.08664200      -0.49448600
38
1sa1msa1nta1am1tma-2
N       -1.25471000       1.29650000       1.93048600
H       -0.99072700       0.28296800       1.85465000
H       -0.49563100       1.85190900       1.46310000
H       -2.14662200       1.39894400       1.43560500
H       -1.36026400       1.57859400       2.90046100
N        2.77087000      -1.72074800       0.01736600
C        3.89760400      -1.11390100      -0.73698600
H        3.77407500      -1.34879000      -1.79432500
H        3.87532500      -0.03568400      -0.58110200
H        4.83262700      -1.53562100      -0.36162100
C        2.77569600      -1.30707500       1.44783000
H        2.85583400      -0.22026300       1.49087400
H        1.83854900      -1.63818300       1.89595600
H        3.63550200      -1.76979300       1.93758400
C        2.74540300      -3.19955700      -0.11949900
H        1.87648300      -3.58237700       0.41249700
H        2.65093500      -3.45198300      -1.17512600
H        3.67056500      -3.60671200       0.29360500
H        1.87789000      -1.38786700      -0.39495400
N       -4.42421800       0.40771100      -0.17689200
O       -3.75203300       0.48339900       0.84957900
O       -5.23465000       1.21183600      -0.55879400
O       -4.26353200      -0.67268700      -0.94094900
H       -3.46563000      -1.19566400      -0.58569000
S       -0.89056400      -1.45422000      -0.10653100
O       -0.49780400      -1.23777600       1.31401500
O        0.18473800      -2.10733200      -0.86733500
O       -2.21820100      -2.07131400      -0.25756200
O       -1.08965500       0.01259300      -0.73101700
H       -0.18157000       0.40916500      -0.87515500
S        1.84352300       2.07698300      -0.14687800
O        1.37823800       0.84780900      -0.87311500
O        3.14142700       1.85638000       0.50934900
O        0.78493700       2.61853000       0.74738600
C        2.08248000       3.32016700      -1.40254700
H        2.82993300       2.95466200      -2.10695400
H        1.12940300       3.48817600      -1.90422500
H        2.42757200       4.23074900      -0.91260300
38
1sa1msa1nta1am1tma-3
N        2.52530200      -2.34380600       1.47652900
H        3.02520200      -1.58431300       0.91936600
H        3.14916800      -3.11501900       1.69414800
H        2.16842900      -1.91137700       2.32757300
N       -0.36086000       2.04491100       1.10761200
C       -1.59879200       1.93058300       1.92276900
H       -2.27026200       1.22041200       1.44042900
H       -1.33007700       1.56486300       2.91378300
H       -2.06942800       2.91349900       1.99031800
C        0.64466900       2.93413300       1.73992100
H        0.85541800       2.56072300       2.74285300
H        1.55099600       2.90680800       1.13563700
H        0.23465000       3.94486800       1.79702600
C       -0.66237000       2.45290900      -0.29216900
H        0.27160700       2.43890300      -0.85235700
H       -1.37059500       1.73972700      -0.71178100
H       -1.10148900       3.45284700      -0.27233700
H        0.04671800       1.08320200       1.09066100
N       -4.20547100       0.01295000      -1.06903700
O       -3.58191000       0.88992300      -0.48575400
O       -5.05708900       0.16842700      -1.90668100
O       -3.93251100      -1.26298200      -0.75124700
H       -3.17071800      -1.25788600      -0.09148800
S        2.94699400       0.29211200      -0.89127300
O        3.73527700      -0.35671300       0.20165000
O        2.33594800       1.57168900      -0.48942200
O        1.97772500      -0.66586200      -1.49594900
H        0.41513800      -0.71919500      -1.14335200
C        4.13081900       0.65271700      -2.17375500
H        4.87709100       1.33375000      -1.76422100
H        4.59076700      -0.28423000      -2.48730000
H        3.59863600       1.11695400      -3.00423300
S       -0.56555300      -1.45574400       0.61812400
O       -0.53478300      -0.76358200      -0.81667200
O        0.27071900      -0.59302500       1.50467500
O       -1.99226100      -1.42745400       0.97757600
O        0.02277200      -2.80245800       0.49958200
H        1.67583900      -2.67055300       0.95726500
