73
3sa4tma-21
S       -0.01859700      -1.92310600      -0.58935500
O        1.17893900      -2.64477100      -0.12480400
O       -1.01464600      -2.73599200      -1.29130100
O       -0.63031100      -1.13020400       0.52590300
O        0.47575900      -0.85678700      -1.67610800
H        1.34949400      -0.43326000      -1.38531800
H       -1.22178100       0.34614600       0.33148500
S        2.75029100       1.29204500       0.03094300
O        1.28516800       1.56086900       0.34350000
O        2.73281200       0.21240600      -1.07936600
O        3.41268200       2.50383600      -0.46692500
O        3.41869800       0.68995800       1.21977900
H        3.53918000      -1.03308200      -0.54033000
S       -3.17283900       1.31430500       0.34492100
O       -3.55027600       0.54333200      -0.88566400
O       -3.48120500       2.73615000       0.26190700
O       -3.61592200       0.60518900       1.55882300
O       -1.55619800       1.29002600       0.34818300
N        4.26520100      -1.80047600      -0.38143100
C        4.08223600      -2.37259000       0.97265400
C        4.03863600      -2.80784900      -1.44414600
C        5.57205800      -1.11637500      -0.51615300
H        4.11345000      -2.31091200      -2.41236600
H        4.79456600      -3.59357800      -1.36576300
H        3.03379200      -3.21227200      -1.31461500
H        4.23216000      -1.56973500       1.69354400
H        3.06313900      -2.75330000       1.04077100
H        4.81256400      -3.17294700       1.12170400
H        5.61711200      -0.32540600       0.23344200
H        6.37860100      -1.84034800      -0.37439200
H        5.63106300      -0.67010000      -1.50917300
N        0.60609600       0.65146600       2.80231400
C       -0.81748800       0.65028700       3.21829500
C        1.23474700      -0.67720500       3.01652800
C        1.37125300       1.73072400       3.47576600
H        2.26348200      -0.60994300       2.66520000
H        1.19119400      -0.91668600       4.08240100
H        0.68764200      -1.40844700       2.42180200
H       -1.27004500       1.60516500       2.95721200
H       -1.34492600      -0.14062400       2.68894100
H       -0.86139200       0.48650400       4.29821900
H        0.89964500       2.68548300       3.24228800
H        1.35827600       1.55565600       4.55438900
H        2.38951600       1.71700900       3.08553800
H        0.68529400       0.87225700       1.77293200
N       -0.07193700       2.49659300      -1.90926100
C       -0.62769000       3.76744100      -1.37652000
C        1.17799700       2.73186000      -2.67869700
C       -1.06317900       1.75142500      -2.72789600
H        1.57285200       1.76783800      -3.00034200
H        0.94111200       3.35804700      -3.54187200
H        1.91588800       3.20522700      -2.03024600
H       -1.53491600       3.55033700      -0.81105000
H        0.12359100       4.21572000      -0.72578800
H       -0.84881100       4.43087800      -2.21598200
H       -1.97824300       1.60305400      -2.15803200
H       -1.26477400       2.33384300      -3.63029900
H       -0.63924300       0.77894100      -2.97665800
H        0.19987000       1.93606600      -1.07003800
N       -4.28775900      -1.92158300      -0.26151200
C       -4.22179600      -2.73627100      -1.49845900
C       -3.56476400      -2.56403200       0.86476800
C       -5.67600400      -1.56683300       0.11608200
H       -3.53572800      -1.85258000       1.68980000
H       -4.09792700      -3.47602700       1.14685700
H       -2.55252700      -2.79246200       0.53557100
H       -4.71403200      -2.18669300      -2.30199700
H       -3.17001700      -2.89814200      -1.74021400
H       -4.73112900      -3.68821500      -1.32804400
H       -6.14186600      -1.04061100      -0.71747900
H       -6.23129600      -2.47862100       0.34955000
H       -5.63037100      -0.90296000       0.98021100
H       -3.82739100      -0.99071100      -0.48150600
73
3sa4tma-24
S        3.17096200      -0.90989400       0.81474600
O        3.82037100      -0.93378100      -0.50973600
O        3.35538800      -2.11421500       1.62900100
O        3.37707700       0.36818100       1.53266400
O        1.56601600      -0.97206300       0.50105000
H        1.28758100      -0.16805600      -0.02923100
H        2.24168300       2.02296700      -0.80681600
S       -0.44224500       1.79954300      -0.64420700
O       -1.40162100       1.38131000      -1.72619500
O       -0.21889500       3.26347400      -0.66215400
O       -1.01570400       1.34625600       0.67209700
O        0.89018700       1.09233700      -0.88214700
H        0.20137500      -2.41983500      -0.87756400
H       -2.83691100       1.38704700       0.25034100
S       -2.44513300      -1.82653800      -0.42464000
O       -1.08119000      -1.92661800       0.19203800
O       -3.00952400      -3.12273600      -0.77762800
O       -3.31797700      -0.94451200       0.37531500
O       -2.20650400      -1.10060500      -1.84131300
H       -1.85576600      -0.16231200      -1.73422900
H       -0.32718800      -0.71269300       1.61595300
N       -3.73958000       1.90996000       0.17274500
C       -4.52780900       1.59355700       1.38742000
C       -3.38552300       3.35152000       0.10972600
C       -4.43861400       1.47163100      -1.06469800
H       -2.78442300       3.52629400      -0.78177900
H       -4.30708000       3.93763400       0.08605000
H       -2.78539400       3.60251100       0.98367600
H       -4.68301100       0.51621500       1.42130000
H       -3.96397200       1.92084300       2.26221600
H       -5.47974600       2.12738700       1.34154500
H       -4.64128500       0.40549100      -0.97949500
H       -5.36253700       2.04718700      -1.16118900
H       -3.77016400       1.65415200      -1.90495000
N        0.72480900      -2.91491600      -1.63906700
C        1.68657500      -3.83888900      -0.98648000
C       -0.29253000      -3.66110700      -2.42524700
C        1.40570300      -1.89213600      -2.47830200
H       -0.95555000      -2.94363300      -2.90755900
H        0.22310700      -4.27575600      -3.16655800
H       -0.88437600      -4.27726000      -1.74874800
H        2.35227800      -3.27369100      -0.33598800
H        1.12107100      -4.56169400      -0.39719700
H        2.25966000      -4.35272300      -1.76150300
H        2.24539200      -1.47323100      -1.92234500
H        1.75969400      -2.37880800      -3.39064600
H        0.68337800      -1.11022200      -2.71611200
N       -0.32645600      -0.74486500       2.65123600
C        0.20787900      -2.07814400       3.03333600
C        0.52218200       0.36290500       3.16256500
C       -1.73574200      -0.57777900       3.07626200
H        0.12448600       1.29404000       2.76000300
H        0.48032400       0.35011400       4.25456200
H        1.54647600       0.22699200       2.81477800
H       -0.41200200      -2.83579200       2.55460800
H        1.23715700      -2.16186400       2.68099600
H        0.16379800      -2.17040700       4.12112000
H       -2.34405200      -1.34615300       2.60226000
H       -1.78408300      -0.64564200       4.16567000
H       -2.07202700       0.39805000       2.73003400
N        2.97558500       2.78258400      -0.76107700
C        4.32415000       2.18734000      -0.93576000
C        2.64200300       3.73353300      -1.84975200
C        2.81685300       3.40193300       0.58031700
H        1.60526000       4.04629500      -1.71835600
H        3.32709800       4.58358800      -1.80153800
H        2.75296800       3.21959800      -2.80544500
H        4.51048100       1.50042700      -0.11149500
H        4.34472400       1.63022700      -1.87209500
H        5.05932800       2.99618000      -0.95562300
H        2.99920700       2.62444200       1.32332400
H        3.53921200       4.21594900       0.68194600
H        1.79424000       3.77461600       0.65457800
73
3sa4tma-25
S       -3.28644200       0.85258800       0.73523800
O       -3.78174200       0.73360700      -0.65652600
O       -3.75496600       2.01821000       1.47431000
O       -3.38064500      -0.44865500       1.44826400
O       -1.68546200       1.12461600       0.59763400
H       -1.26697400       0.29300600       0.21285900
H       -2.96304200      -1.65145600      -0.05788800
S        0.46066100      -1.66959500      -0.66334700
O        1.01558700      -0.86905400      -1.81301400
O        0.34297400      -3.09825400      -1.02905600
O        1.38727900      -1.48585000       0.52710000
O       -0.89182900      -1.13198800      -0.27361800
H        0.59638700       0.45458800       1.66871900
H        2.89640600      -1.63271700       0.10911000
S        2.51734000       1.87319800      -0.09712800
O        1.10043300       1.79865300       0.40537200
O        3.40725900       0.99845800       0.68760800
O        2.43705300       1.25743500      -1.58072800
O        2.98210400       3.24112900      -0.28997400
H       -0.12564800       2.44530600      -0.69982500
H        1.87619900       0.41441600      -1.58913800
N        3.85312300      -2.02373900      -0.18000000
C        3.62094600      -3.47764500      -0.35950500
C        4.25892700      -1.37754200      -1.45270300
C        4.81330400      -1.73659000       0.90860000
H        4.37511700      -0.30944000      -1.27546500
H        5.19752400      -1.82380100      -1.79230000
H        3.46516100      -1.53477300      -2.18366700
H        3.30293600      -3.90077700       0.59368300
H        2.81474000      -3.61613500      -1.08198400
H        4.54490200      -3.95277600      -0.69859100
H        4.44520900      -2.19389800       1.82858200
H        5.78812900      -2.15935300       0.65132400
H        4.87238500      -0.65511000       1.03010800
N       -0.59579900       2.90089500      -1.51724300
C        0.45733800       3.66132200      -2.24266600
C       -1.15803400       1.81668500      -2.37127100
C       -1.64694900       3.81199600      -0.99756800
H       -2.04501800       1.40565500      -1.88816600
H       -1.41988300       2.24737200      -3.34092600
H       -0.40015600       1.03823200      -2.48458200
H        0.96746900       4.32026700      -1.54032700
H        1.18434700       2.95594400      -2.64294200
H       -0.01824800       4.23229100      -3.04319100
H       -1.16745700       4.57932000      -0.38876900
H       -2.15932300       4.27193300      -1.84540700
H       -2.35042900       3.24648600      -0.39030000
N        0.47948200       0.32699400       2.69277500
C       -0.46020600      -0.79486300       2.95589300
C        1.83397800       0.02620000       3.21871600
C       -0.03845100       1.61657800       3.21948500
H        2.52259500       0.80028900       2.88143300
H        1.78263300      -0.02111000       4.30904200
H        2.14670700      -0.92920800       2.80021100
H       -1.44514200      -0.55114600       2.55633800
H       -0.06924300      -1.67755200       2.45206100
H       -0.51212300      -0.94532200       4.03730200
H       -0.99918300       1.81745100       2.74712200
H       -0.14432800       1.53308000       4.30337800
H        0.67023400       2.40082200       2.95599500
N       -3.40211300      -2.40013100      -0.62510600
C       -4.85934300      -2.32136900      -0.35526300
C       -3.09932500      -2.13097400      -2.05451700
C       -2.80685000      -3.68050500      -0.16705700
H       -2.02519800      -2.22391000      -2.20276700
H       -3.64039500      -2.85800000      -2.66505500
H       -3.42382900      -1.11376600      -2.27294700
H       -5.02090200      -2.43777300       0.71537000
H       -5.20421500      -1.33343200      -0.66026500
H       -5.36409100      -3.11116700      -0.91644300
H       -2.99327800      -3.78020300       0.90300500
H       -3.28239800      -4.50161800      -0.70883900
H       -1.73273400      -3.65541600      -0.36689700
