46
1sa1msa1nta1tma1eda-1
H       -2.65178400      -2.45227300       0.17562300
H       -1.56161600      -3.72825300      -0.41058600
H       -0.92604400      -3.15267300       1.84068500
H        0.37893200      -2.65325500       0.75384200
H       -0.03871500      -1.00543300       2.38694900
H       -0.31984900      -0.43912000       0.88562600
H       -2.03058100      -2.00378300      -2.02253900
H       -1.35658500      -0.83332700      -1.09149700
C       -1.62339900      -2.67969200      -0.11308800
C       -0.65661500      -2.45871400       1.04233200
N       -1.31261100      -1.85384000      -1.31398400
N       -0.70523900      -1.08327900       1.59252500
N        1.17229400       2.40973300      -0.52609600
C        2.59287000       2.78534800      -0.30508400
H        2.83616000       2.58590400       0.73807900
H        3.21212200       2.15632900      -0.94552700
H        2.72147100       3.84222600      -0.55024200
C        0.77985800       2.51179900      -1.95425200
H        1.44954200       1.87996300      -2.53877900
H       -0.24741400       2.15671600      -2.04926000
H        0.85718400       3.55454000      -2.27046100
C        0.23974300       3.15960300       0.35113800
H       -0.75664800       2.73457100       0.21871600
H        0.56350100       3.03248900       1.38244300
H        0.25727300       4.21347100       0.06280700
N        2.08834700       0.08549100       2.23470500
O        1.73260600      -0.99758400       2.75801700
O        1.34591500       1.08475800       2.30663900
O        3.17441200       0.14916400       1.60933300
H        3.13990200      -1.17877700       0.50416500
S        1.96242500      -1.03257700      -1.27710600
O        0.93219300      -0.27163800      -0.48136800
O        2.83677500      -1.81458500      -0.19917400
O        1.29801100      -2.11398400      -2.03434700
O        2.81288800      -0.13222400      -2.04504800
H       -0.35303700      -2.05458300      -1.69492200
H        1.09552400       1.39161800      -0.29864400
S       -3.32272100       0.39186400       0.00266100
O       -3.97016200      -0.55364200      -0.92499700
O       -1.93957500       0.75405800      -0.46665800
O       -3.28879100      -0.07962700       1.41329300
H       -1.66771400      -0.75762800       1.81155200
C       -4.27207900       1.89928200      -0.00246900
H       -4.29578900       2.28697400      -1.02104600
H       -5.27856300       1.65757300       0.33981200
H       -3.79852200       2.60809600       0.67728100
46
1sa1msa1nta1tma1eda-3
N        1.86394200       1.93199400       1.26887300
C        2.90091500       1.23794800       2.07548900
H        2.47817400       0.99803100       3.05111200
H        3.18337800       0.31887600       1.56187600
H        3.76565200       1.89626000       2.18250100
C        2.34349700       2.21929200      -0.10997800
H        2.67140300       1.28428200      -0.56244300
H        1.51168300       2.64310700      -0.67078500
H        3.17912500       2.92027800      -0.04736600
C        1.34660700       3.14842900       1.94147000
H        0.53199100       3.54726900       1.33748900
H        0.97294700       2.86885300       2.92727900
H        2.15846500       3.87285200       2.03958300
H        1.06564000       1.25508900       1.20379800
H       -4.67311300      -0.83229700      -0.60455100
H       -3.06719900      -1.19243800      -1.27439000
H       -4.46908800      -3.28390900      -1.11801300
H       -3.03539000      -3.36784200      -0.08761900
H       -5.78105200      -2.93729400       0.82630600
H       -4.64329100      -3.95452500       1.41466200
H       -3.01161100       0.21379400       0.71284700
H       -3.65011300      -1.11564400       1.59150900
C       -3.74162600      -1.38080500      -0.43813400
C       -3.99853500      -2.86599100      -0.21893300
N       -3.10064700      -0.82759600       0.77815400
N       -4.78765100      -3.04099300       1.00261100
N        4.36641000      -1.51435700      -1.08075600
O        4.22839400      -0.48166600      -0.43850500
O        5.20799800      -1.73794500      -1.91420700
O        3.50667100      -2.51676600      -0.84293900
H        2.82500300      -2.18671700      -0.17326300
S       -1.87309300       2.03691500      -0.82715900
O       -0.70360200       2.81609500      -0.38662200
O       -2.90563300       1.83929600       0.22668300
O       -1.50671200       0.73517900      -1.47079400
H       -0.13151900      -0.06198000      -1.16251600
C       -2.66676900       2.98704800      -2.11277700
H       -2.98211900       3.93764800      -1.68204800
H       -1.94260100       3.14626800      -2.91196400
H       -3.52660400       2.42514100      -2.47748100
S        0.41482200      -1.21931600       0.56106500
O        0.06631900      -0.08414700       1.45440800
O        0.67797400      -0.58367300      -0.88050000
O        1.70984800      -1.84131000       0.89213500
O       -0.71210100      -2.16396500       0.45057300
H       -2.14959300      -1.24431600       0.85411000
46
1sa1msa1nta1tma1eda-5
N        0.86779700       2.76202000      -0.44879800
C       -0.36598900       3.57747000      -0.30253700
H       -1.14090200       3.17175200      -0.95380900
H       -0.69246000       3.51724800       0.73558400
H       -0.14100200       4.61010700      -0.57860300
C        1.93934700       3.22481700       0.47184800
H        1.55472500       3.15731600       1.48939600
H        2.79466200       2.56113200       0.35690900
H        2.19598800       4.25601400       0.21770600
C        1.32553500       2.69367500      -1.85908000
H        2.16440100       1.99952800      -1.90670900
H        0.50126100       2.32616200      -2.47185400
H        1.61632200       3.69446700      -2.18648900
H        0.60499700       1.78932400      -0.17033600
H       -0.30251800      -4.07717700      -0.50378900
H        0.03806600      -2.92497700       0.80900500
H       -2.24636400      -3.95929800       1.08272000
H       -2.34352700      -2.21912200       0.82732600
H       -3.19517500      -4.28720000      -1.00546400
H       -3.69843400      -2.72711700      -0.87746200
H        0.55627100      -2.03233100      -1.41108000
H       -1.12536100      -2.19602300      -1.77902500
C       -0.61111700      -3.13670300      -0.03980900
C       -2.08643500      -3.16658200       0.34301600
N       -0.42119400      -2.06249000      -1.04597000
N       -2.88744000      -3.33229900      -0.87166300
H       -0.57003900      -1.12764900      -0.61368700
N       -2.98317000       0.90781700      -1.12870400
O       -2.97232800      -0.30970900      -1.16765100
O       -2.80133200       1.66222300      -2.05813400
O       -3.23882400       1.49815400       0.05039700
H       -2.95391400       0.84798800       0.78017200
S        2.83854500      -1.00853400      -0.33300600
O        2.92883000       0.46181600      -0.41320700
O        2.22563700      -1.63036900      -1.54045400
O        2.20079900      -1.49682600       0.92633100
C        4.51203900      -1.62348100      -0.27016200
H        5.01757200      -1.31963900      -1.18695300
H        4.99821700      -1.18923400       0.60353300
H        4.47442900      -2.70987300      -0.19064100
S       -0.67708000       0.41442500       1.68285800
O       -0.37422400       0.42065900       0.20478800
O       -0.18308600       1.62842200       2.32393900
O       -2.11084900       0.11238900       1.90768900
O        0.08010000      -0.84943400       2.26086000
H        0.95931700      -0.97476100       1.78576000
