1sa_1mea_2w.log
 OpenBabel02281909503D
Gaussian 09 #p opt freq wB97XD/6-31++G(d,p) iop(5/13=1) iop(1/11=1)
 24 20  0  0  0  0  0  0  0  0999 V2000
    1.4698   -0.4267   -0.0988 S   0  0  0  0  0  0  0  0  0  0  0  0
    0.7890   -0.1767   -1.3790 O   0  0  0  0  0  0  0  0  0  0  0  0
    2.9969   -0.7187   -0.5428 O   0  0  0  0  0  0  0  0  0  0  0  0
    3.4728   -1.0677    0.2235 H   0  0  0  0  0  0  0  0  0  0  0  0
   -0.7428    0.6946   -1.0407 H   0  0  0  0  0  0  0  0  0  0  0  0
    1.5012    0.7725    0.7749 O   0  0  0  0  0  0  0  0  0  0  0  0
    1.0084   -1.6295    0.6166 O   0  0  0  0  0  0  0  0  0  0  0  0
   -1.6248    0.9800   -0.5676 N   0  0  0  0  0  0  0  0  0  0  0  0
   -2.7184    0.0112   -0.8311 C   0  0  0  0  0  0  0  0  0  0  0  0
   -1.4083    1.0118    0.4646 H   0  0  0  0  0  0  0  0  0  0  0  0
   -1.8174    1.9404   -0.8497 H   0  0  0  0  0  0  0  0  0  0  0  0
   -3.5382    0.2411   -0.1465 H   0  0  0  0  0  0  0  0  0  0  0  0
   -3.0651    0.1398   -1.8595 H   0  0  0  0  0  0  0  0  0  0  0  0
   -2.2230   -1.4169   -0.6182 C   0  0  0  0  0  0  0  0  0  0  0  0
   -3.0631   -2.0946   -0.8103 H   0  0  0  0  0  0  0  0  0  0  0  0
   -1.4318   -1.6405   -1.3433 H   0  0  0  0  0  0  0  0  0  0  0  0
   -1.7600   -1.5991    0.7011 O   0  0  0  0  0  0  0  0  0  0  0  0
   -0.8059   -1.8042    0.6806 H   0  0  0  0  0  0  0  0  0  0  0  0
   -1.0193    0.8565    2.1057 O   0  0  0  0  0  0  0  0  0  0  0  0
   -1.2804   -0.0693    2.2043 H   0  0  0  0  0  0  0  0  0  0  0  0
   -0.0508    0.8483    2.0171 H   0  0  0  0  0  0  0  0  0  0  0  0
    0.1948    3.0092   -0.3533 O   0  0  0  0  0  0  0  0  0  0  0  0
    0.8185    2.3634    0.0262 H   0  0  0  0  0  0  0  0  0  0  0  0
    0.7297    3.7251   -0.7015 H   0  0  0  0  0  0  0  0  0  0  0  0
  1  7  2  0  0  0  0
  1  6  1  0  0  0  0
  2  1  2  0  0  0  0
  3  1  1  0  0  0  0
  3  4  1  0  0  0  0
  5  8  1  0  0  0  0
  8 10  1  0  0  0  0
  9 14  1  0  0  0  0
  9  8  1  0  0  0  0
  9 12  1  0  0  0  0
 11  8  1  0  0  0  0
 13  9  1  0  0  0  0
 14 17  1  0  0  0  0
 15 14  1  0  0  0  0
 16 14  1  0  0  0  0
 18 17  1  0  0  0  0
 19 20  1  0  0  0  0
 21 19  1  0  0  0  0
 22 23  1  0  0  0  0
 24 22  1  0  0  0  0
M  RAD  1   6   2
M  END
$$$$
