2mea_2w.log
 OpenBabel02281909503D
Gaussian 09 #p opt freq wB97XD/6-31++G(d,p) iop(5/13=1) iop(1/11=1)
 28 24  0  0  0  0  0  0  0  0999 V2000
   -1.0392    0.9051    1.3006 N   0  0  0  0  0  0  0  0  0  0  0  0
   -2.3210    0.5115    0.7104 C   0  0  0  0  0  0  0  0  0  0  0  0
   -1.1517    1.0991    2.2906 H   0  0  0  0  0  0  0  0  0  0  0  0
   -0.6608    1.7529    0.8700 H   0  0  0  0  0  0  0  0  0  0  0  0
   -2.5796   -0.4876    1.0827 H   0  0  0  0  0  0  0  0  0  0  0  0
   -3.1412    1.1877    0.9963 H   0  0  0  0  0  0  0  0  0  0  0  0
   -2.2755    0.4872   -0.8137 C   0  0  0  0  0  0  0  0  0  0  0  0
   -3.2810    0.2334   -1.1808 H   0  0  0  0  0  0  0  0  0  0  0  0
   -2.0338    1.4890   -1.1863 H   0  0  0  0  0  0  0  0  0  0  0  0
   -1.3100   -0.3772   -1.3662 O   0  0  0  0  0  0  0  0  0  0  0  0
   -1.3754   -1.2741   -0.9865 H   0  0  0  0  0  0  0  0  0  0  0  0
    1.5226    0.4668   -1.2602 N   0  0  0  0  0  0  0  0  0  0  0  0
    2.4082   -0.4815   -0.5764 C   0  0  0  0  0  0  0  0  0  0  0  0
    0.5635    0.1038   -1.2831 H   0  0  0  0  0  0  0  0  0  0  0  0
    1.8053    0.5625   -2.2306 H   0  0  0  0  0  0  0  0  0  0  0  0
    2.3316   -1.4963   -0.9947 H   0  0  0  0  0  0  0  0  0  0  0  0
    3.4445   -0.1464   -0.7025 H   0  0  0  0  0  0  0  0  0  0  0  0
    2.1095   -0.5428    0.9152 C   0  0  0  0  0  0  0  0  0  0  0  0
    2.8443   -1.1954    1.3996 H   0  0  0  0  0  0  0  0  0  0  0  0
    2.2062    0.4617    1.3487 H   0  0  0  0  0  0  0  0  0  0  0  0
    0.8245   -1.0647    1.1962 O   0  0  0  0  0  0  0  0  0  0  0  0
    0.1558   -0.3202    1.2123 H   0  0  0  0  0  0  0  0  0  0  0  0
    0.8257    2.7934    0.0680 O   0  0  0  0  0  0  0  0  0  0  0  0
    1.0249    3.5953   -0.4187 H   0  0  0  0  0  0  0  0  0  0  0  0
    1.1900    2.0314   -0.4548 H   0  0  0  0  0  0  0  0  0  0  0  0
   -0.7275   -2.7648   -0.1735 O   0  0  0  0  0  0  0  0  0  0  0  0
   -0.0510   -2.2906    0.3629 H   0  0  0  0  0  0  0  0  0  0  0  0
   -1.1044   -3.4494    0.3822 H   0  0  0  0  0  0  0  0  0  0  0  0
  1  3  1  0  0  0  0
  2  6  1  0  0  0  0
  2  5  1  0  0  0  0
  2  1  1  0  0  0  0
  4  1  1  0  0  0  0
  7  2  1  0  0  0  0
  8  7  1  0  0  0  0
  9  7  1  0  0  0  0
 10 11  1  0  0  0  0
 10  7  1  0  0  0  0
 12 13  1  0  0  0  0
 13 18  1  0  0  0  0
 14 12  1  0  0  0  0
 15 12  1  0  0  0  0
 16 13  1  0  0  0  0
 17 13  1  0  0  0  0
 18 21  1  0  0  0  0
 18 20  1  0  0  0  0
 18 19  1  0  0  0  0
 21 22  1  0  0  0  0
 24 23  1  0  0  0  0
 25 23  1  0  0  0  0
 26 27  1  0  0  0  0
 26 28  1  0  0  0  0
M  END
$$$$
