2sa_2mea_1w.log
 OpenBabel02281909503D
Gaussian appl/chem/G09RevD.01/g09/g09 #p opt freq wB97XD 6-31++G(d,p)
 39 34  0  0  0  0  0  0  0  0999 V2000
   -2.2943    0.1493    0.3694 S   0  0  0  0  0  0  0  0  0  0  0  0
   -1.3161    0.0351   -0.7741 O   0  0  0  0  0  0  0  0  0  0  0  0
   -2.6973    1.5390    0.5905 O   0  0  0  0  0  0  0  0  0  0  0  0
    0.5047    2.2580    0.1985 H   0  0  0  0  0  0  0  0  0  0  0  0
   -0.4390   -2.4722    0.7543 H   0  0  0  0  0  0  0  0  0  0  0  0
   -3.3589   -0.8432    0.2820 O   0  0  0  0  0  0  0  0  0  0  0  0
   -1.4386   -0.3258    1.6574 O   0  0  0  0  0  0  0  0  0  0  0  0
   -0.0091   -2.3476   -0.1676 N   0  0  0  0  0  0  0  0  0  0  0  0
   -0.4532   -3.4519   -1.0530 C   0  0  0  0  0  0  0  0  0  0  0  0
   -0.3713   -1.4341   -0.5151 H   0  0  0  0  0  0  0  0  0  0  0  0
    1.0259   -2.2745   -0.0624 H   0  0  0  0  0  0  0  0  0  0  0  0
   -0.0227   -3.2952   -2.0440 H   0  0  0  0  0  0  0  0  0  0  0  0
   -0.0660   -4.3843   -0.6370 H   0  0  0  0  0  0  0  0  0  0  0  0
   -1.9790   -3.4608   -1.0868 C   0  0  0  0  0  0  0  0  0  0  0  0
   -2.3444   -2.5677   -1.6077 H   0  0  0  0  0  0  0  0  0  0  0  0
   -2.3140   -4.3451   -1.6403 H   0  0  0  0  0  0  0  0  0  0  0  0
   -2.4636   -3.5033    0.2355 O   0  0  0  0  0  0  0  0  0  0  0  0
   -2.9602   -2.6844    0.4042 H   0  0  0  0  0  0  0  0  0  0  0  0
    3.0957   -0.4613    0.0845 S   0  0  0  0  0  0  0  0  0  0  0  0
    2.8837    0.2376    1.3693 O   0  0  0  0  0  0  0  0  0  0  0  0
    4.6947   -0.4742   -0.1549 O   0  0  0  0  0  0  0  0  0  0  0  0
    5.1077   -0.9688    0.5664 H   0  0  0  0  0  0  0  0  0  0  0  0
   -0.7372    0.3441    1.8563 H   0  0  0  0  0  0  0  0  0  0  0  0
    2.6822   -1.8787    0.1334 O   0  0  0  0  0  0  0  0  0  0  0  0
    2.5911    0.2676   -1.0867 O   0  0  0  0  0  0  0  0  0  0  0  0
    0.5226    2.0821   -0.8186 N   0  0  0  0  0  0  0  0  0  0  0  0
    0.2112    3.3206   -1.5669 C   0  0  0  0  0  0  0  0  0  0  0  0
    1.4347    1.6448   -1.0381 H   0  0  0  0  0  0  0  0  0  0  0  0
   -0.1992    1.3423   -0.9635 H   0  0  0  0  0  0  0  0  0  0  0  0
    0.9645    4.0662   -1.3041 H   0  0  0  0  0  0  0  0  0  0  0  0
    0.2740    3.1108   -2.6369 H   0  0  0  0  0  0  0  0  0  0  0  0
   -1.1841    3.7948   -1.1686 C   0  0  0  0  0  0  0  0  0  0  0  0
   -1.3683    4.7706   -1.6304 H   0  0  0  0  0  0  0  0  0  0  0  0
   -1.9358    3.0897   -1.5446 H   0  0  0  0  0  0  0  0  0  0  0  0
   -1.2649    3.9099    0.2324 O   0  0  0  0  0  0  0  0  0  0  0  0
   -1.8305    3.1886    0.5551 H   0  0  0  0  0  0  0  0  0  0  0  0
    0.5884    1.4402    1.9623 O   0  0  0  0  0  0  0  0  0  0  0  0
    1.4644    0.9910    1.8773 H   0  0  0  0  0  0  0  0  0  0  0  0
    0.6217    2.0204    2.7277 H   0  0  0  0  0  0  0  0  0  0  0  0
  1  3  1  0  0  0  0
  1  7  1  0  0  0  0
  2  1  2  0  0  0  0
  6  1  2  0  0  0  0
  7 23  1  0  0  0  0
  8 11  1  0  0  0  0
  8  5  1  0  0  0  0
  9 13  1  0  0  0  0
  9  8  1  0  0  0  0
 10  8  1  0  0  0  0
 12  9  1  0  0  0  0
 14  9  1  0  0  0  0
 14 17  1  0  0  0  0
 15 14  1  0  0  0  0
 16 14  1  0  0  0  0
 17 18  1  0  0  0  0
 19 24  2  0  0  0  0
 19 20  1  0  0  0  0
 21 19  1  0  0  0  0
 21 22  1  0  0  0  0
 25 19  2  0  0  0  0
 26  4  1  0  0  0  0
 27 30  1  0  0  0  0
 27 32  1  0  0  0  0
 27 26  1  0  0  0  0
 28 26  1  0  0  0  0
 29 26  1  0  0  0  0
 31 27  1  0  0  0  0
 32 35  1  0  0  0  0
 33 32  1  0  0  0  0
 34 32  1  0  0  0  0
 35 36  1  0  0  0  0
 37 39  1  0  0  0  0
 38 37  1  0  0  0  0
M  RAD  2   3   2  20   2
M  END
$$$$
