2sa_2mea_3w.log
 OpenBabel02281909503D
Gaussian appl/chem/G09RevD.01/g09/g09 #p opt freq wB97XD/6-31++G(d,p) iop(5/13=1
 45 38  0  0  0  0  0  0  0  0999 V2000
   -3.3933   -0.2532   -0.3886 S   0  0  0  0  0  0  0  0  0  0  0  0
   -3.2617    1.2047   -0.5845 O   0  0  0  0  0  0  0  0  0  0  0  0
   -4.9485   -0.5971   -0.6726 O   0  0  0  0  0  0  0  0  0  0  0  0
   -5.1769   -0.2651   -1.5518 H   0  0  0  0  0  0  0  0  0  0  0  0
   -1.7171    2.0214   -0.3964 H   0  0  0  0  0  0  0  0  0  0  0  0
   -2.6077   -1.0344   -1.3630 O   0  0  0  0  0  0  0  0  0  0  0  0
   -3.2188   -0.6848    1.0072 O   0  0  0  0  0  0  0  0  0  0  0  0
   -0.7694    2.3463   -0.1224 N   0  0  0  0  0  0  0  0  0  0  0  0
   -0.7279    2.7569    1.3039 C   0  0  0  0  0  0  0  0  0  0  0  0
   -0.0996    1.5705   -0.3128 H   0  0  0  0  0  0  0  0  0  0  0  0
   -0.4268    3.1118   -0.7297 H   0  0  0  0  0  0  0  0  0  0  0  0
    0.2455    3.2203    1.4801 H   0  0  0  0  0  0  0  0  0  0  0  0
   -1.5086    3.5034    1.4650 H   0  0  0  0  0  0  0  0  0  0  0  0
   -0.9408    1.5766    2.2364 C   0  0  0  0  0  0  0  0  0  0  0  0
   -0.9913    1.9603    3.2624 H   0  0  0  0  0  0  0  0  0  0  0  0
   -1.8871    1.0729    2.0084 H   0  0  0  0  0  0  0  0  0  0  0  0
    0.1429    0.6690    2.1104 O   0  0  0  0  0  0  0  0  0  0  0  0
   -0.1731   -0.2564    2.1339 H   0  0  0  0  0  0  0  0  0  0  0  0
    2.5567    0.9736   -0.4953 S   0  0  0  0  0  0  0  0  0  0  0  0
    2.3858    1.5516    0.9938 O   0  0  0  0  0  0  0  0  0  0  0  0
    3.4795   -0.1673   -0.4330 O   0  0  0  0  0  0  0  0  0  0  0  0
   -0.0887   -2.2241    0.1396 H   0  0  0  0  0  0  0  0  0  0  0  0
    1.6449    1.0893    1.4645 H   0  0  0  0  0  0  0  0  0  0  0  0
    1.1722    0.5318   -0.8802 O   0  0  0  0  0  0  0  0  0  0  0  0
    3.0181    2.1173   -1.2791 O   0  0  0  0  0  0  0  0  0  0  0  0
   -0.0151   -1.9306   -0.8472 N   0  0  0  0  0  0  0  0  0  0  0  0
    0.6259   -2.9955   -1.6514 C   0  0  0  0  0  0  0  0  0  0  0  0
   -0.9736   -1.6871   -1.1571 H   0  0  0  0  0  0  0  0  0  0  0  0
    0.5431   -1.0502   -0.8631 H   0  0  0  0  0  0  0  0  0  0  0  0
   -0.0563   -3.8481   -1.6778 H   0  0  0  0  0  0  0  0  0  0  0  0
    0.7778   -2.6234   -2.6668 H   0  0  0  0  0  0  0  0  0  0  0  0
    1.9425   -3.3792   -0.9901 C   0  0  0  0  0  0  0  0  0  0  0  0
    2.3826   -4.2192   -1.5417 H   0  0  0  0  0  0  0  0  0  0  0  0
    2.6402   -2.5329   -1.0421 H   0  0  0  0  0  0  0  0  0  0  0  0
    1.6801   -3.7428    0.3460 O   0  0  0  0  0  0  0  0  0  0  0  0
    2.2576   -3.2116    0.9281 H   0  0  0  0  0  0  0  0  0  0  0  0
    1.0044    4.0409   -1.3905 O   0  0  0  0  0  0  0  0  0  0  0  0
    1.0969    4.6390   -2.1348 H   0  0  0  0  0  0  0  0  0  0  0  0
    1.7864    3.4495   -1.4055 H   0  0  0  0  0  0  0  0  0  0  0  0
    3.1934   -1.8983    1.6559 O   0  0  0  0  0  0  0  0  0  0  0  0
    3.9809   -2.0206    2.1902 H   0  0  0  0  0  0  0  0  0  0  0  0
    3.4141   -1.2327    0.9724 H   0  0  0  0  0  0  0  0  0  0  0  0
   -0.9563   -1.8125    1.8467 O   0  0  0  0  0  0  0  0  0  0  0  0
   -1.8804   -1.5662    1.6131 H   0  0  0  0  0  0  0  0  0  0  0  0
   -0.9807   -2.5132    2.5030 H   0  0  0  0  0  0  0  0  0  0  0  0
  1  7  1  0  0  0  0
  2  1  2  0  0  0  0
  3  1  1  0  0  0  0
  4  3  1  0  0  0  0
  5  8  1  0  0  0  0
  6  1  2  0  0  0  0
  8  9  1  0  0  0  0
  9 13  1  0  0  0  0
  9 12  1  0  0  0  0
  9 14  1  0  0  0  0
 10  8  1  0  0  0  0
 11  8  1  0  0  0  0
 14 15  1  0  0  0  0
 16 14  1  0  0  0  0
 17 18  1  0  0  0  0
 17 14  1  0  0  0  0
 19 21  1  0  0  0  0
 19 20  1  0  0  0  0
 20 23  1  0  0  0  0
 24 19  2  0  0  0  0
 25 19  2  0  0  0  0
 26 22  1  0  0  0  0
 27 32  1  0  0  0  0
 27 26  1  0  0  0  0
 28 26  1  0  0  0  0
 29 26  1  0  0  0  0
 30 27  1  0  0  0  0
 31 27  1  0  0  0  0
 32 35  1  0  0  0  0
 33 32  1  0  0  0  0
 34 32  1  0  0  0  0
 35 36  1  0  0  0  0
 38 37  1  0  0  0  0
 39 37  1  0  0  0  0
 40 41  1  0  0  0  0
 42 40  1  0  0  0  0
 43 45  1  0  0  0  0
 44 43  1  0  0  0  0
M  RAD  2   7   2  21   2
M  END
$$$$
