58
4sa2am1dma1eda-33
S       -3.27983600      -2.28414400      -0.75551000
O       -2.80678600      -2.92751000       0.46900200
O       -4.08580200      -1.06412400      -0.54014600
O       -2.22782400      -2.11793400      -1.79304000
O       -4.27736400      -3.33084800      -1.49522900
H       -5.02444200      -3.49995600      -0.90505400
S       -2.08523700       1.25644500       0.70705700
O       -2.32868000       2.02202800      -0.54219800
O       -1.32235700       0.01335200       0.44153800
O       -1.48295900       2.09901500       1.75944900
O       -3.48727300       0.79664800       1.28418000
H       -3.82409800       0.07447300       0.68425800
S        1.74915300       1.75072500      -1.02067500
O        1.88071600       2.07606400       0.41578300
O        1.11729900       0.41752100      -1.23859600
O        1.05588600       2.81936500      -1.76722200
O        3.19385800       1.65783400      -1.64785300
H        3.63190800       0.82195000      -1.31704500
S        3.74600200      -1.84307000      -0.22986500
O        3.08920800      -2.60449400      -1.30182900
O        4.29929500      -0.54492600      -0.66264800
O        2.94984800      -1.78543100       1.01271500
O        5.03604900      -2.70744800       0.24394500
H        5.67678400      -2.70479700      -0.48022100
N       -1.35406100       0.40615600      -2.52270700
H       -0.36608300       0.42615100      -2.19865000
H       -1.85766900       1.09885100      -1.92858100
H       -1.41604000       0.64326000      -3.50789400
H       -1.76095300      -0.53460900      -2.33163100
N        0.36367600      -2.26078900      -0.60569400
H        1.18197800      -2.80121000      -0.91399600
H       -0.49995700      -2.46450800      -1.12945300
H        0.16759300      -2.40005000       0.42046700
H        0.61161600      -1.27359400      -0.75795100
C        0.74033400       4.96436500       0.98075900
N       -0.30960400       4.20844000       0.26181800
C       -1.44183900       5.03588700      -0.21098700
H        0.12997900       3.71857400      -0.54744300
H        0.30978700       5.40514800       1.88109900
H        1.54166100       4.27025600       1.23112400
H        1.12227600       5.74927700       0.32648600
H       -1.89297300       5.54248300       0.64344900
H       -1.07067600       5.77019600      -0.92730900
H       -2.17091400       4.37347900      -0.67573500
H       -0.67974300       3.45334100       0.87468200
C        0.33005200      -1.98882400       3.27359600
N       -0.43755100      -2.47871100       2.12852000
C        0.51793100      -0.47739200       3.21325400
N        1.02354400      -0.06612500       1.88501000
H       -1.34492400      -2.02478600       2.02709800
H       -0.63649200      -3.46898400       2.23065200
H       -0.13671000      -2.22089000       4.24070800
H        1.31118800      -2.47433400       3.25061500
H        1.23328100      -0.16299900       3.97563900
H       -0.42314200       0.05515300       3.37553900
H        1.80379800      -0.67029400       1.54717100
H        1.35403500       0.90352600       1.82116500
H        0.24180900      -0.10431700       1.20350800
58
4sa2am1dma1eda-3
S       -2.57639700       1.79615500      -0.91782200
O       -1.76493500       0.62965100      -1.36710500
O       -1.98492700       3.07263200      -1.33349000
O       -2.53693500       1.76079600       0.69595600
O       -4.00864600       1.61768300      -1.19865100
H       -1.62514000       2.02000600       0.99499100
H       -2.42048400      -0.85153000      -1.39482100
S        0.99347300       2.82341400       0.47280600
O        1.38954100       1.85749400      -0.57429600
O       -0.03941900       2.23483000       1.39025700
O        2.14520200       3.36472500       1.19724900
O        0.29715100       4.05870900      -0.22868600
H       -0.52562800       3.75510400      -0.69571400
S       -2.00218200      -2.49850200      -0.07626300
O       -2.35831700      -1.64066800       1.10892700
O       -2.73838400      -1.79856500      -1.31466700
O       -0.53991800      -2.35699200      -0.34335400
O       -2.51149100      -3.84768800      -0.02127000
H       -3.85861700      -0.76783800       0.85319700
S        2.86849000      -2.21822000       0.03944600
O        2.26221900      -0.96936700       0.63805400
O        2.84817700      -2.10934500      -1.43414500
O        4.15424200      -2.55720700       0.62699300
O        1.87756000      -3.39697100       0.46555800
H        0.97070500      -3.20997600       0.12852800
N       -0.00903200      -0.45634500       2.03679100
H        0.79577900      -0.84230200       1.49427100
H       -0.90463000      -0.87271600       1.70298800
H        0.11891500      -0.66011500       3.02408600
H       -0.00966900       0.57168400       1.87784000
N        0.70496100      -0.42826100      -1.94054300
H        0.27898500      -0.22442900      -2.83976000
H        0.07943000      -1.04610900      -1.39599100
H        1.60351800      -0.93855800      -2.01742300
H        0.83293000       0.45570000      -1.41243000
N       -4.78238800      -0.34616000       0.61372900
H       -4.59107600       0.34138300      -0.14708300
C       -5.67280700      -1.42061400       0.11756100
H       -5.19280500      -1.89466000      -0.73811000
H       -5.81813300      -2.15612100       0.90971300
H       -6.62958900      -0.98576900      -0.17428900
C       -5.29918300       0.39221000       1.78705200
H       -5.41745900      -0.29987700       2.62198200
H       -4.58256100       1.17448900       2.03511200
H       -6.26118800       0.83889200       1.53278300
C        5.50974000       0.19270300      -0.85862800
N        6.18130300      -0.25703500       0.36112200
C        4.68293300       1.44882900      -0.55590700
N        3.97653100       1.23549500       0.73172600
H        7.18881300      -0.20235800       0.29858000
H        5.91134200      -1.21082300       0.58669000
H        6.21521700       0.42901100      -1.66131800
H        4.84974900      -0.59401400      -1.23616100
H        3.93438700       1.65995700      -1.32054600
H        5.32243600       2.32568900      -0.42871600
H        3.27578400       0.46718100       0.64650900
H        3.48122300       2.08742300       1.04714200
H        4.69096200       0.91474300       1.39840300
58
4sa2am1dma1eda-5
S       -2.74586100       1.77927800      -0.81933900
O       -1.92143400       0.66485000      -1.36730100
O       -2.23678700       3.09220700      -1.23012100
O       -2.59233100       1.69146300       0.78467600
O       -4.18588800       1.54936900      -1.00802100
H       -1.67764600       1.99183700       1.03799000
H       -2.51558500      -0.83007000      -1.37280800
S        0.87637800       2.77540500       0.33900300
O        1.13841800       1.71588700      -0.65755800
O       -0.09478900       2.29401800       1.37788500
O        2.10938800       3.31431000       0.91906300
O        0.17840500       3.99489600      -0.38929800
H       -0.70094100       3.71188400      -0.75525400
S       -1.95181700      -2.49556300      -0.13063200
O       -2.28630500      -1.70822600       1.10595300
O       -2.79210600      -1.79199200      -1.29898800
O       -0.51763300      -2.25597200      -0.47502700
O       -2.37968800      -3.87343300      -0.10739300
H       -3.82137100      -0.87850300       0.96259700
S        2.97134400      -2.06156500      -0.03331700
O        2.39413200      -1.46665400       1.20053300
O        2.93580900      -1.04751800      -1.14022400
O        4.28472400      -2.65991700       0.13916000
O        2.01271000      -3.25986200      -0.47394100
H        1.06344200      -3.01035300      -0.38576000
N        0.02893100      -0.42640600       2.02332100
H        0.86723100      -0.87972500       1.59069000
H       -0.84353800      -0.87449700       1.67549600
H        0.08839500      -0.53886300       3.03196800
H        0.02784600       0.58601500       1.78949300
N        0.52497800      -0.39757300      -2.23903000
H        0.31937100      -0.36511500      -3.23238300
H       -0.06039500      -1.10376400      -1.76095500
H        1.51507800      -0.64967200      -2.03248200
H        0.33790800       0.51465200      -1.79217300
N       -4.77170400      -0.48303200       0.79246500
H       -4.65101600       0.23167400       0.04196900
C       -5.65356000      -1.57441600       0.31911100
H       -5.20987000      -2.00776100      -0.57686500
H       -5.72640700      -2.33564800       1.09684500
H       -6.64027100      -1.16620500       0.09667900
C       -5.23952700       0.20405000       2.01621300
H       -5.28251400      -0.51412600       2.83628400
H       -4.53575800       1.00433500       2.24295100
H       -6.22991500       0.62322400       1.83441200
C        6.03209300       0.18007100      -0.30263300
N        5.99335800      -0.35066400       1.05664500
C        5.22282300       1.48211700      -0.35354200
N        3.92365200       1.22733900       0.31301700
H        6.86278400      -0.22796900       1.55792800
H        5.72765600      -1.33159700       1.06023400
H        7.04702300       0.38213300      -0.66164100
H        5.57818100      -0.54696800      -0.98190800
H        5.03661300       1.81739000      -1.37512000
H        5.72266400       2.28096800       0.19967200
H        3.32737500       0.61220900      -0.26836700
H        3.38573400       2.08252500       0.54510100
H        4.14874400       0.69511500       1.16897200
