1b_1dma_5w.log
 OpenBabel02281910103D
Gaussian kemi/andersx/programs/g09/g09 # opt freq 6-31++g(d,p) wb97xd
 31 24  0  0  0  0  0  0  0  0999 V2000
   -2.8942    2.6663    0.1072 C   0  0  0  0  0  0  0  0  0  0  0  0
   -2.2786    1.3678    0.3054 N   0  0  0  0  0  0  0  0  0  0  0  0
   -2.3066    0.9227    1.6913 C   0  0  0  0  0  0  0  0  0  0  0  0
    0.5482    0.9382   -0.7373 O   0  0  0  0  0  0  0  0  0  0  0  0
    0.5902   -0.5446   -0.8846 S   0  0  0  0  0  0  0  0  0  0  0  0
    0.3291   -1.2043    0.4247 O   0  0  0  0  0  0  0  0  0  0  0  0
    2.0943   -0.9175   -1.2941 O   0  0  0  0  0  0  0  0  0  0  0  0
   -0.2295   -1.0559   -1.9789 O   0  0  0  0  0  0  0  0  0  0  0  0
    3.6970    0.0278    0.6196 O   0  0  0  0  0  0  0  0  0  0  0  0
   -3.0691   -0.9144   -1.2046 O   0  0  0  0  0  0  0  0  0  0  0  0
    1.8926   -0.7185    2.5877 O   0  0  0  0  0  0  0  0  0  0  0  0
    2.7686    2.4639   -0.3922 O   0  0  0  0  0  0  0  0  0  0  0  0
   -2.2045   -2.6048    0.9629 O   0  0  0  0  0  0  0  0  0  0  0  0
    2.7261   -0.6244   -0.5748 H   0  0  0  0  0  0  0  0  0  0  0  0
   -2.9102   -0.0713   -0.7228 H   0  0  0  0  0  0  0  0  0  0  0  0
   -1.3130    1.3863   -0.0233 H   0  0  0  0  0  0  0  0  0  0  0  0
   -1.7921   -0.0369    1.7727 H   0  0  0  0  0  0  0  0  0  0  0  0
   -1.8376    1.6436    2.3835 H   0  0  0  0  0  0  0  0  0  0  0  0
   -3.3462    0.7716    2.0047 H   0  0  0  0  0  0  0  0  0  0  0  0
   -3.9683    2.6012    0.3196 H   0  0  0  0  0  0  0  0  0  0  0  0
   -2.7740    2.9727   -0.9358 H   0  0  0  0  0  0  0  0  0  0  0  0
   -2.4690    3.4545    0.7546 H   0  0  0  0  0  0  0  0  0  0  0  0
    3.2170   -0.1782    1.4465 H   0  0  0  0  0  0  0  0  0  0  0  0
    3.5537    0.9773    0.4453 H   0  0  0  0  0  0  0  0  0  0  0  0
    1.9110    1.9927   -0.4927 H   0  0  0  0  0  0  0  0  0  0  0  0
    3.1016    2.5449   -1.2893 H   0  0  0  0  0  0  0  0  0  0  0  0
    1.9919   -1.5950    2.9666 H   0  0  0  0  0  0  0  0  0  0  0  0
    1.2340   -0.8322    1.8652 H   0  0  0  0  0  0  0  0  0  0  0  0
   -2.2300   -1.0655   -1.6669 H   0  0  0  0  0  0  0  0  0  0  0  0
   -2.6995   -2.1489    0.2594 H   0  0  0  0  0  0  0  0  0  0  0  0
   -1.2974   -2.3037    0.8082 H   0  0  0  0  0  0  0  0  0  0  0  0
  1  2  1  0  0  0  0
  1 20  1  0  0  0  0
  1 22  1  0  0  0  0
  2  3  1  0  0  0  0
  3 17  1  0  0  0  0
  3 19  1  0  0  0  0
  3 18  1  0  0  0  0
  5  4  2  0  0  0  0
  5  6  1  0  0  0  0
  7  5  1  0  0  0  0
  7 14  1  0  0  0  0
  8  5  2  0  0  0  0
  9 23  1  0  0  0  0
 10 15  1  0  0  0  0
 11 27  1  0  0  0  0
 16  2  1  0  0  0  0
 21  1  1  0  0  0  0
 24  9  1  0  0  0  0
 25 12  1  0  0  0  0
 26 12  1  0  0  0  0
 28 11  1  0  0  0  0
 29 10  1  0  0  0  0
 30 13  1  0  0  0  0
 31 13  1  0  0  0  0
M  RAD  1   6   2
M  END
$$$$
