1sa_1b_1dma_2w.log
 OpenBabel02281910103D
Gaussian kemi/andersx/programs/g09/g09 # opt freq 6-31++g(d,p) wb97xd
 29 24  0  0  0  0  0  0  0  0999 V2000
   -0.0436    2.2413    1.3290 C   0  0  0  0  0  0  0  0  0  0  0  0
   -0.0822    1.9725   -0.1204 N   0  0  0  0  0  0  0  0  0  0  0  0
   -0.0136    3.1829   -0.9571 C   0  0  0  0  0  0  0  0  0  0  0  0
    2.1546    0.8178   -0.9270 O   0  0  0  0  0  0  0  0  0  0  0  0
    2.8926   -0.2348   -0.1669 S   0  0  0  0  0  0  0  0  0  0  0  0
    4.3230    0.0047   -0.0785 O   0  0  0  0  0  0  0  0  0  0  0  0
    2.3375   -0.1181    1.3474 O   0  0  0  0  0  0  0  0  0  0  0  0
    2.5055   -1.5931   -0.6299 O   0  0  0  0  0  0  0  0  0  0  0  0
    0.1634   -1.6160    1.7172 O   0  0  0  0  0  0  0  0  0  0  0  0
   -2.3659    0.8466   -0.9651 O   0  0  0  0  0  0  0  0  0  0  0  0
   -2.8976   -0.1971   -0.0380 S   0  0  0  0  0  0  0  0  0  0  0  0
   -4.3408   -0.1886    0.1205 O   0  0  0  0  0  0  0  0  0  0  0  0
   -2.1147   -0.1873    1.2262 O   0  0  0  0  0  0  0  0  0  0  0  0
   -2.5832   -1.6150   -0.7493 O   0  0  0  0  0  0  0  0  0  0  0  0
    0.0345   -2.4177   -1.0079 O   0  0  0  0  0  0  0  0  0  0  0  0
   -0.9655    1.4564   -0.3760 H   0  0  0  0  0  0  0  0  0  0  0  0
    0.7466    1.3740   -0.3851 H   0  0  0  0  0  0  0  0  0  0  0  0
    0.9480   -2.0265   -0.9818 H   0  0  0  0  0  0  0  0  0  0  0  0
   -1.6148   -1.7342   -0.8777 H   0  0  0  0  0  0  0  0  0  0  0  0
    1.5403   -0.7059    1.4792 H   0  0  0  0  0  0  0  0  0  0  0  0
    0.1329   -2.2473    0.9829 H   0  0  0  0  0  0  0  0  0  0  0  0
   -0.6864   -1.1330    1.6409 H   0  0  0  0  0  0  0  0  0  0  0  0
    0.9219    2.6816    1.5838 H   0  0  0  0  0  0  0  0  0  0  0  0
   -0.8610    2.9163    1.5909 H   0  0  0  0  0  0  0  0  0  0  0  0
   -0.1767    1.2996    1.8565 H   0  0  0  0  0  0  0  0  0  0  0  0
   -0.0638    2.8816   -2.0034 H   0  0  0  0  0  0  0  0  0  0  0  0
   -0.8573    3.8351   -0.7223 H   0  0  0  0  0  0  0  0  0  0  0  0
    0.9315    3.6966   -0.7709 H   0  0  0  0  0  0  0  0  0  0  0  0
    0.0904   -3.2027   -1.5563 H   0  0  0  0  0  0  0  0  0  0  0  0
  1 23  1  0  0  0  0
  1 24  1  0  0  0  0
  1 25  1  0  0  0  0
  2  1  1  0  0  0  0
  3 28  1  0  0  0  0
  3 27  1  0  0  0  0
  3  2  1  0  0  0  0
  4  5  2  0  0  0  0
  5  6  1  0  0  0  0
  5  7  1  0  0  0  0
  7 20  1  0  0  0  0
  8  5  2  0  0  0  0
 10 11  2  0  0  0  0
 11 12  2  0  0  0  0
 11 13  1  0  0  0  0
 14 11  1  0  0  0  0
 15 18  1  0  0  0  0
 16  2  1  0  0  0  0
 17  2  1  0  0  0  0
 19 14  1  0  0  0  0
 21  9  1  0  0  0  0
 22  9  1  0  0  0  0
 26  3  1  0  0  0  0
 29 15  1  0  0  0  0
M  RAD  2   6   2  13   2
M  END
$$$$
