1sa_1b_2dma_3w.log
 OpenBabel02281910103D
Gaussian kemi/andersx/programs/g09/g09 # opt freq 6-31++g(d,p) wb97xd
 42 35  0  0  0  0  0  0  0  0999 V2000
   -5.7435    0.0285   -0.3138 C   0  0  0  0  0  0  0  0  0  0  0  0
   -4.3628    0.1176    0.1254 N   0  0  0  0  0  0  0  0  0  0  0  0
   -4.2197    0.1625    1.5737 C   0  0  0  0  0  0  0  0  0  0  0  0
   -2.6837    2.0473   -1.0142 O   0  0  0  0  0  0  0  0  0  0  0  0
   -0.8549    2.0364    1.0444 O   0  0  0  0  0  0  0  0  0  0  0  0
   -2.3261   -1.8157   -0.9631 O   0  0  0  0  0  0  0  0  0  0  0  0
   -1.0144   -1.3276   -0.5451 S   0  0  0  0  0  0  0  0  0  0  0  0
   -0.9932   -0.7542    0.8287 O   0  0  0  0  0  0  0  0  0  0  0  0
    0.0889   -2.2991   -0.7427 O   0  0  0  0  0  0  0  0  0  0  0  0
   -0.7217   -0.0949   -1.5404 O   0  0  0  0  0  0  0  0  0  0  0  0
    1.6536    0.9244   -1.1790 O   0  0  0  0  0  0  0  0  0  0  0  0
    2.4395    1.6908   -0.1624 S   0  0  0  0  0  0  0  0  0  0  0  0
    2.7321    0.7847    0.9984 O   0  0  0  0  0  0  0  0  0  0  0  0
    1.5108    2.8514    0.3811 O   0  0  0  0  0  0  0  0  0  0  0  0
    3.6207    2.3413   -0.7050 O   0  0  0  0  0  0  0  0  0  0  0  0
    2.6325   -1.7542    0.0030 N   0  0  0  0  0  0  0  0  0  0  0  0
    3.3617   -1.7440   -1.2802 C   0  0  0  0  0  0  0  0  0  0  0  0
    3.1045   -2.7593    0.9732 C   0  0  0  0  0  0  0  0  0  0  0  0
    1.1699   -0.9460    2.6682 O   0  0  0  0  0  0  0  0  0  0  0  0
    0.1695    0.3197   -1.3413 H   0  0  0  0  0  0  0  0  0  0  0  0
   -3.3666    1.4447   -0.6269 H   0  0  0  0  0  0  0  0  0  0  0  0
   -3.8240   -0.6692   -0.2397 H   0  0  0  0  0  0  0  0  0  0  0  0
   -6.2786    0.9453   -0.0393 H   0  0  0  0  0  0  0  0  0  0  0  0
   -6.2841   -0.8258    0.1306 H   0  0  0  0  0  0  0  0  0  0  0  0
   -5.7767   -0.0695   -1.4024 H   0  0  0  0  0  0  0  0  0  0  0  0
   -4.6289    1.1041    1.9579 H   0  0  0  0  0  0  0  0  0  0  0  0
   -3.1589    0.1132    1.8265 H   0  0  0  0  0  0  0  0  0  0  0  0
   -4.7386   -0.6704    2.0791 H   0  0  0  0  0  0  0  0  0  0  0  0
    1.6174   -1.9194   -0.2019 H   0  0  0  0  0  0  0  0  0  0  0  0
    2.6865   -0.7955    0.4307 H   0  0  0  0  0  0  0  0  0  0  0  0
    4.1657   -2.5929    1.1715 H   0  0  0  0  0  0  0  0  0  0  0  0
    2.9552   -3.7573    0.5555 H   0  0  0  0  0  0  0  0  0  0  0  0
    2.5256   -2.6272    1.8887 H   0  0  0  0  0  0  0  0  0  0  0  0
    4.4165   -1.5336   -1.0924 H   0  0  0  0  0  0  0  0  0  0  0  0
    2.9347   -0.9559   -1.9007 H   0  0  0  0  0  0  0  0  0  0  0  0
    3.2490   -2.7164   -1.7638 H   0  0  0  0  0  0  0  0  0  0  0  0
   -0.8836    1.0633    1.0946 H   0  0  0  0  0  0  0  0  0  0  0  0
    0.5947    2.5087    0.6502 H   0  0  0  0  0  0  0  0  0  0  0  0
   -1.5179    2.2411    0.3482 H   0  0  0  0  0  0  0  0  0  0  0  0
   -2.1108    1.4462   -1.5120 H   0  0  0  0  0  0  0  0  0  0  0  0
    1.6167   -0.1496    2.3421 H   0  0  0  0  0  0  0  0  0  0  0  0
    0.3587   -0.9911    2.1360 H   0  0  0  0  0  0  0  0  0  0  0  0
  1 23  1  0  0  0  0
  1  2  1  0  0  0  0
  1 24  1  0  0  0  0
  2  3  1  0  0  0  0
  3 27  1  0  0  0  0
  3 26  1  0  0  0  0
  3 28  1  0  0  0  0
  4 21  1  0  0  0  0
  5 37  1  0  0  0  0
  6  7  2  0  0  0  0
  7  8  1  0  0  0  0
  9  7  2  0  0  0  0
 10 20  1  0  0  0  0
 10  7  1  0  0  0  0
 11 12  2  0  0  0  0
 12 14  1  0  0  0  0
 12 13  1  0  0  0  0
 14 38  1  0  0  0  0
 15 12  2  0  0  0  0
 16 30  1  0  0  0  0
 16 18  1  0  0  0  0
 17 34  1  0  0  0  0
 17 16  1  0  0  0  0
 18 31  1  0  0  0  0
 18 33  1  0  0  0  0
 22  2  1  0  0  0  0
 25  1  1  0  0  0  0
 29 16  1  0  0  0  0
 32 18  1  0  0  0  0
 35 17  1  0  0  0  0
 36 17  1  0  0  0  0
 39  5  1  0  0  0  0
 40  4  1  0  0  0  0
 41 19  1  0  0  0  0
 42 19  1  0  0  0  0
M  RAD  2   8   2  13   2
M  END
$$$$
