2sa_1b_1dma_1w.log
 OpenBabel02281910103D
Gaussian kemi/andersx/programs/g09/g09 # opt freq 6-31++g(d,p) wb97xd
 33 28  0  0  0  0  0  0  0  0999 V2000
    0.4631    4.8898   -0.0215 O   0  0  0  0  0  0  0  0  0  0  0  0
    2.5079   -1.4518    0.5600 O   0  0  0  0  0  0  0  0  0  0  0  0
    3.5178   -0.5801   -0.0277 S   0  0  0  0  0  0  0  0  0  0  0  0
    3.0185   -0.1487   -1.4659 O   0  0  0  0  0  0  0  0  0  0  0  0
    4.8744   -1.0421   -0.1512 O   0  0  0  0  0  0  0  0  0  0  0  0
    3.5645    0.7815    0.7752 O   0  0  0  0  0  0  0  0  0  0  0  0
    1.2236    2.0667    0.5355 O   0  0  0  0  0  0  0  0  0  0  0  0
    0.0896    1.2211    0.1058 S   0  0  0  0  0  0  0  0  0  0  0  0
    0.4968    0.2859   -0.9888 O   0  0  0  0  0  0  0  0  0  0  0  0
   -0.9723    2.2149   -0.4942 O   0  0  0  0  0  0  0  0  0  0  0  0
   -0.5556    0.4750    1.2037 O   0  0  0  0  0  0  0  0  0  0  0  0
   -3.2827    0.0946    1.3715 O   0  0  0  0  0  0  0  0  0  0  0  0
   -3.6050   -0.3083   -0.1654 S   0  0  0  0  0  0  0  0  0  0  0  0
   -3.0283    0.7909   -0.9912 O   0  0  0  0  0  0  0  0  0  0  0  0
   -5.0477   -0.4241   -0.2286 O   0  0  0  0  0  0  0  0  0  0  0  0
   -2.8783   -1.5885   -0.4012 O   0  0  0  0  0  0  0  0  0  0  0  0
    0.9783    4.1295    0.2784 H   0  0  0  0  0  0  0  0  0  0  0  0
   -0.3387    4.4725   -0.3536 H   0  0  0  0  0  0  0  0  0  0  0  0
    2.0404    0.0749   -1.4087 H   0  0  0  0  0  0  0  0  0  0  0  0
   -1.3273   -1.8963   -0.1401 H   0  0  0  0  0  0  0  0  0  0  0  0
    2.6831    1.2532    0.7622 H   0  0  0  0  0  0  0  0  0  0  0  0
   -2.3239    0.2969    1.4357 H   0  0  0  0  0  0  0  0  0  0  0  0
   -1.8216    1.6834   -0.7139 H   0  0  0  0  0  0  0  0  0  0  0  0
   -0.3323   -2.2116    0.0370 N   0  0  0  0  0  0  0  0  0  0  0  0
    0.2397   -1.3614   -0.0504 H   0  0  0  0  0  0  0  0  0  0  0  0
    0.0858   -3.1491   -1.0199 C   0  0  0  0  0  0  0  0  0  0  0  0
   -0.0410   -2.6552   -1.9834 H   0  0  0  0  0  0  0  0  0  0  0  0
   -0.5426   -4.0404   -0.9792 H   0  0  0  0  0  0  0  0  0  0  0  0
    1.1351   -3.4074   -0.8686 H   0  0  0  0  0  0  0  0  0  0  0  0
   -0.2275   -2.7441    1.4081 C   0  0  0  0  0  0  0  0  0  0  0  0
   -0.5281   -1.9561    2.0973 H   0  0  0  0  0  0  0  0  0  0  0  0
    0.8077   -3.0267    1.6016 H   0  0  0  0  0  0  0  0  0  0  0  0
   -0.8957   -3.6017    1.5046 H   0  0  0  0  0  0  0  0  0  0  0  0
  1 17  1  0  0  0  0
  3  2  2  0  0  0  0
  3  6  1  0  0  0  0
  4 19  1  0  0  0  0
  4  3  1  0  0  0  0
  5  3  2  0  0  0  0
  8  7  2  0  0  0  0
  8 11  1  0  0  0  0
  9  8  2  0  0  0  0
 10  8  1  0  0  0  0
 12 22  1  0  0  0  0
 13 12  1  0  0  0  0
 14 13  2  0  0  0  0
 15 13  1  0  0  0  0
 16 13  2  0  0  0  0
 18  1  1  0  0  0  0
 20 24  1  0  0  0  0
 21  6  1  0  0  0  0
 23 10  1  0  0  0  0
 24 30  1  0  0  0  0
 25 24  1  0  0  0  0
 26 28  1  0  0  0  0
 26 29  1  0  0  0  0
 26 24  1  0  0  0  0
 27 26  1  0  0  0  0
 30 33  1  0  0  0  0
 30 32  1  0  0  0  0
 30 31  1  0  0  0  0
M  RAD  2  11   2  15   2
M  END
$$$$
