2sa_1b_2dma_1w.log
 OpenBabel02281910103D
Gaussian kemi/andersx/programs/g09/g09 # opt freq 6-31++g(d,p) wb97xd
 43 37  0  0  0  0  0  0  0  0999 V2000
   -1.0375    2.7802    1.5720 C   0  0  0  0  0  0  0  0  0  0  0  0
   -0.3814    2.3939    0.3069 N   0  0  0  0  0  0  0  0  0  0  0  0
    0.3349    3.5038   -0.3582 C   0  0  0  0  0  0  0  0  0  0  0  0
   -2.0069    1.7540   -1.7781 O   0  0  0  0  0  0  0  0  0  0  0  0
    1.9220    0.9866    0.9501 O   0  0  0  0  0  0  0  0  0  0  0  0
    3.0846    1.2467    0.0552 S   0  0  0  0  0  0  0  0  0  0  0  0
    2.4671    1.2424   -1.4368 O   0  0  0  0  0  0  0  0  0  0  0  0
    3.7028    2.5559    0.1968 O   0  0  0  0  0  0  0  0  0  0  0  0
    4.0420    0.1059    0.1157 O   0  0  0  0  0  0  0  0  0  0  0  0
   -0.3535   -1.3457    0.4680 O   0  0  0  0  0  0  0  0  0  0  0  0
   -0.2175   -1.4558   -1.1185 S   0  0  0  0  0  0  0  0  0  0  0  0
    0.1480   -0.0992   -1.6172 O   0  0  0  0  0  0  0  0  0  0  0  0
   -1.5136   -1.8988   -1.6511 O   0  0  0  0  0  0  0  0  0  0  0  0
    0.8915   -2.4218   -1.2731 O   0  0  0  0  0  0  0  0  0  0  0  0
   -3.7120   -1.7578    0.0426 O   0  0  0  0  0  0  0  0  0  0  0  0
   -3.7885   -0.2391    0.5874 S   0  0  0  0  0  0  0  0  0  0  0  0
   -2.3827    0.0785    1.0262 O   0  0  0  0  0  0  0  0  0  0  0  0
   -4.1658    0.6118   -0.5591 O   0  0  0  0  0  0  0  0  0  0  0  0
   -4.7426   -0.2870    1.6805 O   0  0  0  0  0  0  0  0  0  0  0  0
    2.7390   -2.1532    0.7185 N   0  0  0  0  0  0  0  0  0  0  0  0
    2.1859   -2.0332    2.0827 C   0  0  0  0  0  0  0  0  0  0  0  0
    3.6181   -3.3154    0.5091 C   0  0  0  0  0  0  0  0  0  0  0  0
   -1.0911    2.0257   -0.3781 H   0  0  0  0  0  0  0  0  0  0  0  0
   -3.0105   -1.8260   -0.6447 H   0  0  0  0  0  0  0  0  0  0  0  0
    1.9617   -2.2114    0.0192 H   0  0  0  0  0  0  0  0  0  0  0  0
    0.3177    1.6505    0.4989 H   0  0  0  0  0  0  0  0  0  0  0  0
   -0.3811    4.2949   -0.5864 H   0  0  0  0  0  0  0  0  0  0  0  0
    1.1277    3.8660    0.2981 H   0  0  0  0  0  0  0  0  0  0  0  0
    0.7824    3.1245   -1.2760 H   0  0  0  0  0  0  0  0  0  0  0  0
   -0.2741    3.1103    2.2792 H   0  0  0  0  0  0  0  0  0  0  0  0
   -1.7399    3.5915    1.3704 H   0  0  0  0  0  0  0  0  0  0  0  0
   -1.5812    1.9145    1.9493 H   0  0  0  0  0  0  0  0  0  0  0  0
   -1.1757   -0.8024    0.7192 H   0  0  0  0  0  0  0  0  0  0  0  0
    1.6938    0.6234   -1.4953 H   0  0  0  0  0  0  0  0  0  0  0  0
    3.2685   -1.2673    0.4853 H   0  0  0  0  0  0  0  0  0  0  0  0
    3.0658   -4.2333    0.7196 H   0  0  0  0  0  0  0  0  0  0  0  0
    3.9474   -3.3186   -0.5302 H   0  0  0  0  0  0  0  0  0  0  0  0
    4.4838   -3.2397    1.1698 H   0  0  0  0  0  0  0  0  0  0  0  0
    1.5066   -2.8654    2.2733 H   0  0  0  0  0  0  0  0  0  0  0  0
    3.0099   -2.0365    2.7998 H   0  0  0  0  0  0  0  0  0  0  0  0
    1.6456   -1.0894    2.1350 H   0  0  0  0  0  0  0  0  0  0  0  0
   -1.4595    1.0099   -2.0745 H   0  0  0  0  0  0  0  0  0  0  0  0
   -2.8396    1.3537   -1.4446 H   0  0  0  0  0  0  0  0  0  0  0  0
  1 32  1  0  0  0  0
  1 30  1  0  0  0  0
  2 26  1  0  0  0  0
  2  1  1  0  0  0  0
  3 28  1  0  0  0  0
  3  2  1  0  0  0  0
  4 43  1  0  0  0  0
  6  9  2  0  0  0  0
  6  8  2  0  0  0  0
  6  5  1  0  0  0  0
  7  6  1  0  0  0  0
 10 33  1  0  0  0  0
 11 10  1  0  0  0  0
 12 11  2  0  0  0  0
 13 11  2  0  0  0  0
 14 11  1  0  0  0  0
 15 16  1  0  0  0  0
 16 17  2  0  0  0  0
 16 19  1  0  0  0  0
 18 16  2  0  0  0  0
 20 21  1  0  0  0  0
 21 41  1  0  0  0  0
 21 39  1  0  0  0  0
 21 40  1  0  0  0  0
 22 20  1  0  0  0  0
 22 36  1  0  0  0  0
 22 38  1  0  0  0  0
 23  2  1  0  0  0  0
 24 15  1  0  0  0  0
 25 20  1  0  0  0  0
 27  3  1  0  0  0  0
 29  3  1  0  0  0  0
 31  1  1  0  0  0  0
 34  7  1  0  0  0  0
 35 20  1  0  0  0  0
 37 22  1  0  0  0  0
 42  4  1  0  0  0  0
M  RAD  3   5   2  14   2  19   2
M  END
$$$$
