2sa_1b_1dma_2w.log
 OpenBabel02281910103D
Gaussian kemi/andersx/programs/g09/g09 # opt freq 6-31++g(d,p) wb97xd
 36 30  0  0  0  0  0  0  0  0999 V2000
   -3.5374   -2.7404   -0.8106 O   0  0  0  0  0  0  0  0  0  0  0  0
   -2.4995    2.4268   -0.4325 O   0  0  0  0  0  0  0  0  0  0  0  0
   -3.2460    1.2182   -0.1320 S   0  0  0  0  0  0  0  0  0  0  0  0
   -2.8248    0.0650   -1.1393 O   0  0  0  0  0  0  0  0  0  0  0  0
   -4.6895    1.2438   -0.1445 O   0  0  0  0  0  0  0  0  0  0  0  0
   -2.6857    0.7129    1.2475 O   0  0  0  0  0  0  0  0  0  0  0  0
   -3.0145   -1.7665    1.7286 O   0  0  0  0  0  0  0  0  0  0  0  0
   -0.7984   -2.5770    0.1254 O   0  0  0  0  0  0  0  0  0  0  0  0
    0.2144   -1.5411   -0.1125 S   0  0  0  0  0  0  0  0  0  0  0  0
   -0.3363   -0.3957   -0.9267 O   0  0  0  0  0  0  0  0  0  0  0  0
    1.3195   -2.2156   -1.0071 O   0  0  0  0  0  0  0  0  0  0  0  0
    0.8596   -1.0177    1.1079 O   0  0  0  0  0  0  0  0  0  0  0  0
    3.6421   -0.9466    1.1678 O   0  0  0  0  0  0  0  0  0  0  0  0
    3.9512    0.0938   -0.0313 S   0  0  0  0  0  0  0  0  0  0  0  0
    3.0848   -0.3504   -1.1667 O   0  0  0  0  0  0  0  0  0  0  0  0
    5.3782   -0.0113   -0.2566 O   0  0  0  0  0  0  0  0  0  0  0  0
    3.4895    1.4256    0.4523 O   0  0  0  0  0  0  0  0  0  0  0  0
   -2.5804   -2.9020   -0.7924 H   0  0  0  0  0  0  0  0  0  0  0  0
   -3.6139   -1.8553   -1.1926 H   0  0  0  0  0  0  0  0  0  0  0  0
   -1.8246   -0.1192   -1.0856 H   0  0  0  0  0  0  0  0  0  0  0  0
   -3.4896   -2.1754    0.9753 H   0  0  0  0  0  0  0  0  0  0  0  0
    1.9129    1.6937    0.1624 H   0  0  0  0  0  0  0  0  0  0  0  0
   -2.1101   -2.0976    1.5925 H   0  0  0  0  0  0  0  0  0  0  0  0
   -2.9108   -0.2699    1.4534 H   0  0  0  0  0  0  0  0  0  0  0  0
    2.6684   -1.0090    1.2830 H   0  0  0  0  0  0  0  0  0  0  0  0
    2.0779   -1.5512   -1.1304 H   0  0  0  0  0  0  0  0  0  0  0  0
    0.8929    1.9366    0.0365 N   0  0  0  0  0  0  0  0  0  0  0  0
    0.4291    1.0815   -0.3208 H   0  0  0  0  0  0  0  0  0  0  0  0
    0.7649    3.0011   -0.9773 C   0  0  0  0  0  0  0  0  0  0  0  0
    1.2289    2.6504   -1.8996 H   0  0  0  0  0  0  0  0  0  0  0  0
    1.2849    3.8930   -0.6229 H   0  0  0  0  0  0  0  0  0  0  0  0
   -0.2936    3.2108   -1.1376 H   0  0  0  0  0  0  0  0  0  0  0  0
    0.3283    2.2789    1.3592 C   0  0  0  0  0  0  0  0  0  0  0  0
    0.4143    1.3988    1.9959 H   0  0  0  0  0  0  0  0  0  0  0  0
   -0.7204    2.5508    1.2402 H   0  0  0  0  0  0  0  0  0  0  0  0
    0.9023    3.1064    1.7801 H   0  0  0  0  0  0  0  0  0  0  0  0
  1 18  1  0  0  0  0
  2  3  2  0  0  0  0
  3  6  1  0  0  0  0
  4 20  1  0  0  0  0
  4  3  1  0  0  0  0
  5  3  2  0  0  0  0
  6 24  1  0  0  0  0
  9  8  2  0  0  0  0
  9 12  1  0  0  0  0
 10  9  2  0  0  0  0
 11  9  1  0  0  0  0
 13 25  1  0  0  0  0
 14 17  1  0  0  0  0
 14 13  1  0  0  0  0
 15 14  2  0  0  0  0
 16 14  2  0  0  0  0
 19  1  1  0  0  0  0
 21  7  1  0  0  0  0
 23  7  1  0  0  0  0
 26 11  1  0  0  0  0
 27 22  1  0  0  0  0
 27 33  1  0  0  0  0
 28 27  1  0  0  0  0
 29 31  1  0  0  0  0
 29 27  1  0  0  0  0
 30 29  1  0  0  0  0
 32 29  1  0  0  0  0
 33 36  1  0  0  0  0
 33 34  1  0  0  0  0
 35 33  1  0  0  0  0
M  RAD  2  12   2  17   2
M  END
$$$$
