2sa_2a.log
 OpenBabel02271919093D
Gaussian 09 # opt freq wB97XD/6-31++G(d,p)
 22 18  0  0  0  0  0  0  0  0999 V2000
    2.1379   -0.0092   -0.1419 S   0  0  0  0  0  0  0  0  0  0  0  0
    2.1270   -1.3411    0.5049 O   0  0  0  0  0  0  0  0  0  0  0  0
    3.5492    0.0799   -0.9237 O   0  0  0  0  0  0  0  0  0  0  0  0
    1.1518    0.1588   -1.2128 O   0  0  0  0  0  0  0  0  0  0  0  0
    2.1389    1.0965    0.8414 O   0  0  0  0  0  0  0  0  0  0  0  0
    0.6867   -2.1113    0.8573 H   0  0  0  0  0  0  0  0  0  0  0  0
    4.2625   -0.0600   -0.2857 H   0  0  0  0  0  0  0  0  0  0  0  0
   -2.2291    0.0585   -0.2160 S   0  0  0  0  0  0  0  0  0  0  0  0
   -2.0751    1.4419   -0.7155 O   0  0  0  0  0  0  0  0  0  0  0  0
   -1.3511   -0.8879   -1.2000 O   0  0  0  0  0  0  0  0  0  0  0  0
   -1.5241   -0.0690    1.1150 O   0  0  0  0  0  0  0  0  0  0  0  0
   -3.5532   -0.5178   -0.2432 O   0  0  0  0  0  0  0  0  0  0  0  0
   -0.8473    2.2079    0.1491 H   0  0  0  0  0  0  0  0  0  0  0  0
   -0.4646   -0.4758   -1.3361 H   0  0  0  0  0  0  0  0  0  0  0  0
   -0.2403    2.4245    0.9825 N   0  0  0  0  0  0  0  0  0  0  0  0
   -0.2007    3.4211    1.1731 H   0  0  0  0  0  0  0  0  0  0  0  0
   -0.6890    1.9125    1.7452 H   0  0  0  0  0  0  0  0  0  0  0  0
    0.7173    2.0168    0.8577 H   0  0  0  0  0  0  0  0  0  0  0  0
   -0.3033   -2.4187    1.0270 N   0  0  0  0  0  0  0  0  0  0  0  0
   -0.3614   -3.1057    1.7727 H   0  0  0  0  0  0  0  0  0  0  0  0
   -0.8581   -1.5357    1.2410 H   0  0  0  0  0  0  0  0  0  0  0  0
   -0.6881   -2.7895    0.1579 H   0  0  0  0  0  0  0  0  0  0  0  0
  1  2  2  0  0  0  0
  1  5  1  0  0  0  0
  3  7  1  0  0  0  0
  3  1  1  0  0  0  0
  4  1  2  0  0  0  0
  6 19  1  0  0  0  0
  8 11  1  0  0  0  0
  9  8  2  0  0  0  0
 10  8  1  0  0  0  0
 12  8  2  0  0  0  0
 13 15  1  0  0  0  0
 14 10  1  0  0  0  0
 15 16  1  0  0  0  0
 15 17  1  0  0  0  0
 18 15  1  0  0  0  0
 19 21  1  0  0  0  0
 19 20  1  0  0  0  0
 22 19  1  0  0  0  0
M  RAD  2   5   2  11   2
M  END
$$$$
