2sa_3a.sdf 
 OpenBabel09082008333D
Besel et al., Gaussian 16, # opt freq 6-31++g(d,p) wb97xd
 26 21  0  0  0  0  0  0  0  0999 V2000
   -2.8833    2.6045   -0.2459 N   0  0  0  0  0  0  0  0  0  0  0  0
   -3.5972    3.3101   -0.0976 H   0  0  0  0  0  0  0  0  0  0  0  0
   -3.3266    1.6832   -0.2038 H   0  0  0  0  0  0  0  0  0  0  0  0
   -2.5432    2.7002   -1.1985 H   0  0  0  0  0  0  0  0  0  0  0  0
   -0.6954    1.9834    1.3826 N   0  0  0  0  0  0  0  0  0  0  0  0
    0.2220    2.0367    0.9015 H   0  0  0  0  0  0  0  0  0  0  0  0
   -1.4839    2.3789    0.7855 H   0  0  0  0  0  0  0  0  0  0  0  0
   -0.9043    0.9659    1.4991 H   0  0  0  0  0  0  0  0  0  0  0  0
   -0.6441    2.4495    2.2832 H   0  0  0  0  0  0  0  0  0  0  0  0
    0.7624   -2.5178    0.8856 N   0  0  0  0  0  0  0  0  0  0  0  0
    0.8202   -3.3784    1.4208 H   0  0  0  0  0  0  0  0  0  0  0  0
    0.5198   -2.7139   -0.0898 H   0  0  0  0  0  0  0  0  0  0  0  0
   -0.0205   -1.8953    1.2173 H   0  0  0  0  0  0  0  0  0  0  0  0
    1.6374   -1.9540    0.9370 H   0  0  0  0  0  0  0  0  0  0  0  0
    2.3041    0.3474   -0.1406 S   0  0  0  0  0  0  0  0  0  0  0  0
    2.6402   -0.5113    1.0052 O   0  0  0  0  0  0  0  0  0  0  0  0
    1.8306    1.7010    0.2015 O   0  0  0  0  0  0  0  0  0  0  0  0
    1.4267   -0.3352   -1.1216 O   0  0  0  0  0  0  0  0  0  0  0  0
    3.7335    0.5507   -0.8691 O   0  0  0  0  0  0  0  0  0  0  0  0
    3.6242    1.1925   -1.5841 H   0  0  0  0  0  0  0  0  0  0  0  0
   -0.2299    0.0489   -1.2312 H   0  0  0  0  0  0  0  0  0  0  0  0
   -1.8925   -0.8585   -0.1959 S   0  0  0  0  0  0  0  0  0  0  0  0
   -3.2854   -0.4394   -0.1581 O   0  0  0  0  0  0  0  0  0  0  0  0
   -1.1906    0.2643   -1.1219 O   0  0  0  0  0  0  0  0  0  0  0  0
   -1.2025   -0.7017    1.1491 O   0  0  0  0  0  0  0  0  0  0  0  0
   -1.5707   -2.1705   -0.7616 O   0  0  0  0  0  0  0  0  0  0  0  0
  1  3  1  0  0  0  0
  1  2  1  0  0  0  0
  4  1  1  0  0  0  0
  5  8  1  0  0  0  0
  5  9  1  0  0  0  0
  6  5  1  0  0  0  0
  7  5  1  0  0  0  0
 10 14  1  0  0  0  0
 10 13  1  0  0  0  0
 10 11  1  0  0  0  0
 12 10  1  0  0  0  0
 15 17  2  0  0  0  0
 15 16  1  0  0  0  0
 18 15  2  0  0  0  0
 19 15  1  0  0  0  0
 20 19  1  0  0  0  0
 21 24  1  0  0  0  0
 22 23  2  0  0  0  0
 22 25  1  0  0  0  0
 24 22  1  0  0  0  0
 26 22  2  0  0  0  0
M  RAD  2  16   2  25   2
M  END
$$$$
