4sa_2a_01.sdf 
 OpenBabel09082008333D
Besel et al., Gaussian 16, # opt freq 6-31++g(d,p) wb97xd
 36 30  0  0  0  0  0  0  0  0999 V2000
    2.4638    0.1627    2.6377 N   0  0  0  0  0  0  0  0  0  0  0  0
    2.4406    1.1255    2.2897 H   0  0  0  0  0  0  0  0  0  0  0  0
    2.7172   -0.4602    1.8475 H   0  0  0  0  0  0  0  0  0  0  0  0
    3.1033    0.0629    3.4209 H   0  0  0  0  0  0  0  0  0  0  0  0
   -0.5188   -0.3593   -2.2215 N   0  0  0  0  0  0  0  0  0  0  0  0
   -0.6262   -0.1604   -3.2135 H   0  0  0  0  0  0  0  0  0  0  0  0
   -1.4447   -0.6094   -1.8191 H   0  0  0  0  0  0  0  0  0  0  0  0
    0.1786   -1.1136   -2.0987 H   0  0  0  0  0  0  0  0  0  0  0  0
   -0.1406    0.4781   -1.7537 H   0  0  0  0  0  0  0  0  0  0  0  0
   -4.0540    0.0860   -0.7578 S   0  0  0  0  0  0  0  0  0  0  0  0
   -3.0879   -0.8371   -1.3603 O   0  0  0  0  0  0  0  0  0  0  0  0
   -5.1787    0.5461   -1.5130 O   0  0  0  0  0  0  0  0  0  0  0  0
   -4.5896   -0.5655    0.5698 O   0  0  0  0  0  0  0  0  0  0  0  0
   -3.2449    1.3596   -0.2670 O   0  0  0  0  0  0  0  0  0  0  0  0
   -2.3951    1.0795    0.1612 H   0  0  0  0  0  0  0  0  0  0  0  0
   -3.8285   -0.9007    1.1116 H   0  0  0  0  0  0  0  0  0  0  0  0
    2.7493   -1.5784   -0.8969 S   0  0  0  0  0  0  0  0  0  0  0  0
    1.7499   -1.9789   -1.8908 O   0  0  0  0  0  0  0  0  0  0  0  0
    3.5345   -0.3865   -1.2634 O   0  0  0  0  0  0  0  0  0  0  0  0
    2.1947   -1.4861    0.4812 O   0  0  0  0  0  0  0  0  0  0  0  0
    3.7930   -2.7936   -0.7559 O   0  0  0  0  0  0  0  0  0  0  0  0
    4.1772   -2.9865   -1.6235 H   0  0  0  0  0  0  0  0  0  0  0  0
    0.5348   -1.9233    0.6670 H   0  0  0  0  0  0  0  0  0  0  0  0
    1.7028    2.5025   -0.2282 S   0  0  0  0  0  0  0  0  0  0  0  0
    1.0367    1.8165   -1.3296 O   0  0  0  0  0  0  0  0  0  0  0  0
    1.8881    3.9220   -0.2524 O   0  0  0  0  0  0  0  0  0  0  0  0
    0.9606    2.1151    1.1207 O   0  0  0  0  0  0  0  0  0  0  0  0
    3.1098    1.8216    0.0206 O   0  0  0  0  0  0  0  0  0  0  0  0
    3.2468    1.0011   -0.5475 H   0  0  0  0  0  0  0  0  0  0  0  0
    0.1994    1.4622    0.9645 H   0  0  0  0  0  0  0  0  0  0  0  0
   -1.0025   -0.8032    1.6448 S   0  0  0  0  0  0  0  0  0  0  0  0
   -0.4483   -1.9958    0.7515 O   0  0  0  0  0  0  0  0  0  0  0  0
   -0.9316    0.4228    0.7566 O   0  0  0  0  0  0  0  0  0  0  0  0
   -2.3770   -1.1681    1.9549 O   0  0  0  0  0  0  0  0  0  0  0  0
   -0.1079   -0.6519    2.8025 O   0  0  0  0  0  0  0  0  0  0  0  0
    1.4835   -0.1104    2.8869 H   0  0  0  0  0  0  0  0  0  0  0  0
  1 36  1  0  0  0  0
  1  4  1  0  0  0  0
  2  1  1  0  0  0  0
  3  1  1  0  0  0  0
  5  8  1  0  0  0  0
  5  7  1  0  0  0  0
  5  9  1  0  0  0  0
  6  5  1  0  0  0  0
 10 14  1  0  0  0  0
 10 13  1  0  0  0  0
 11 10  2  0  0  0  0
 12 10  2  0  0  0  0
 13 16  1  0  0  0  0
 14 15  1  0  0  0  0
 17 21  1  0  0  0  0
 17 20  1  0  0  0  0
 18 17  2  0  0  0  0
 19 17  2  0  0  0  0
 22 21  1  0  0  0  0
 23 32  1  0  0  0  0
 24 28  1  0  0  0  0
 24 27  1  0  0  0  0
 25 24  2  0  0  0  0
 26 24  2  0  0  0  0
 29 28  1  0  0  0  0
 30 27  1  0  0  0  0
 31 34  2  0  0  0  0
 31 35  1  0  0  0  0
 32 31  1  0  0  0  0
 33 31  2  0  0  0  0
M  RAD  2  20   2  35   2
M  END
$$$$
4sa_2a_02.sdf 
 OpenBabel09082008333D
Besel et al., Gaussian 16, # opt freq 6-31++g(d,p) wb97xd
 36 30  0  0  0  0  0  0  0  0999 V2000
    2.6029    0.4410    2.3679 N   0  0  0  0  0  0  0  0  0  0  0  0
    3.1786    0.7830    3.1323 H   0  0  0  0  0  0  0  0  0  0  0  0
    1.6107    0.3238    2.6696 H   0  0  0  0  0  0  0  0  0  0  0  0
    2.6369    1.0859    1.5575 H   0  0  0  0  0  0  0  0  0  0  0  0
    2.9636   -0.4548    2.0024 H   0  0  0  0  0  0  0  0  0  0  0  0
   -0.3729   -0.3269   -2.0767 N   0  0  0  0  0  0  0  0  0  0  0  0
    0.0511   -0.9572   -2.7529 H   0  0  0  0  0  0  0  0  0  0  0  0
    0.0125    0.6279   -2.1794 H   0  0  0  0  0  0  0  0  0  0  0  0
   -1.4028   -0.3333   -2.1351 H   0  0  0  0  0  0  0  0  0  0  0  0
   -0.1311   -0.6300   -1.1149 H   0  0  0  0  0  0  0  0  0  0  0  0
    3.0278   -2.0465   -0.5826 S   0  0  0  0  0  0  0  0  0  0  0  0
    3.5755   -1.5373    0.6718 O   0  0  0  0  0  0  0  0  0  0  0  0
    3.8003   -2.9236   -1.4081 O   0  0  0  0  0  0  0  0  0  0  0  0
    1.6563   -2.7780   -0.2943 O   0  0  0  0  0  0  0  0  0  0  0  0
    2.5617   -0.7955   -1.4483 O   0  0  0  0  0  0  0  0  0  0  0  0
    2.6555    0.0669   -0.9515 H   0  0  0  0  0  0  0  0  0  0  0  0
    1.0627   -2.1827    0.2319 H   0  0  0  0  0  0  0  0  0  0  0  0
   -4.2135   -0.3420   -0.6605 S   0  0  0  0  0  0  0  0  0  0  0  0
   -3.0147   -0.6532   -1.4378 O   0  0  0  0  0  0  0  0  0  0  0  0
   -5.4964   -0.3075   -1.2910 O   0  0  0  0  0  0  0  0  0  0  0  0
   -4.2884   -1.3544    0.5446 O   0  0  0  0  0  0  0  0  0  0  0  0
   -3.9870    1.0655    0.0378 O   0  0  0  0  0  0  0  0  0  0  0  0
   -3.0804    1.1217    0.4145 H   0  0  0  0  0  0  0  0  0  0  0  0
   -3.4101   -1.4206    0.9975 H   0  0  0  0  0  0  0  0  0  0  0  0
    1.5000    2.4742   -0.4935 S   0  0  0  0  0  0  0  0  0  0  0  0
    2.6378    1.5481   -0.2026 O   0  0  0  0  0  0  0  0  0  0  0  0
    0.8465    2.1582   -1.7692 O   0  0  0  0  0  0  0  0  0  0  0  0
    0.6179    2.6303    0.6700 O   0  0  0  0  0  0  0  0  0  0  0  0
    2.1462    3.9345   -0.6460 O   0  0  0  0  0  0  0  0  0  0  0  0
    2.6318    3.9820   -1.4822 H   0  0  0  0  0  0  0  0  0  0  0  0
   -0.7570   -0.3521    1.6515 S   0  0  0  0  0  0  0  0  0  0  0  0
   -0.0823    0.0117    2.9012 O   0  0  0  0  0  0  0  0  0  0  0  0
    0.2473   -0.7616    0.6143 O   0  0  0  0  0  0  0  0  0  0  0  0
   -1.8883   -1.2621    1.7696 O   0  0  0  0  0  0  0  0  0  0  0  0
   -1.4077    0.9948    1.0396 O   0  0  0  0  0  0  0  0  0  0  0  0
   -0.7026    1.6915    0.9177 H   0  0  0  0  0  0  0  0  0  0  0  0
  1  3  1  0  0  0  0
  1  2  1  0  0  0  0
  4  1  1  0  0  0  0
  5  1  1  0  0  0  0
  6 10  1  0  0  0  0
  7  6  1  0  0  0  0
  8  6  1  0  0  0  0
  9  6  1  0  0  0  0
 11 14  1  0  0  0  0
 11 12  2  0  0  0  0
 13 11  2  0  0  0  0
 14 17  1  0  0  0  0
 15 16  1  0  0  0  0
 15 11  1  0  0  0  0
 18 22  1  0  0  0  0
 18 21  1  0  0  0  0
 19 18  2  0  0  0  0
 20 18  2  0  0  0  0
 21 24  1  0  0  0  0
 22 23  1  0  0  0  0
 25 26  2  0  0  0  0
 25 28  1  0  0  0  0
 27 25  2  0  0  0  0
 29 25  1  0  0  0  0
 30 29  1  0  0  0  0
 31 34  2  0  0  0  0
 31 32  1  0  0  0  0
 33 31  2  0  0  0  0
 35 31  1  0  0  0  0
 36 35  1  0  0  0  0
M  RAD  2  28   2  32   2
M  END
$$$$
