5sa_4a.sdf 
 OpenBabel09082008333D
Besel et al., Gaussian 16, # opt freq 6-31++g(d,p) wb97xd
 51 42  0  0  0  0  0  0  0  0999 V2000
    3.3642    1.7795    0.3851 N   0  0  0  0  0  0  0  0  0  0  0  0
    3.0964    2.7525    0.1851 H   0  0  0  0  0  0  0  0  0  0  0  0
    2.8553    1.4202    1.2253 H   0  0  0  0  0  0  0  0  0  0  0  0
    3.0962    1.1764   -0.4175 H   0  0  0  0  0  0  0  0  0  0  0  0
    4.3661    1.6964    0.5374 H   0  0  0  0  0  0  0  0  0  0  0  0
   -0.2248    0.0188   -1.7975 N   0  0  0  0  0  0  0  0  0  0  0  0
    0.8046   -0.0469   -1.7121 H   0  0  0  0  0  0  0  0  0  0  0  0
   -0.4538    0.6762   -2.5405 H   0  0  0  0  0  0  0  0  0  0  0  0
   -0.6475   -0.9076   -1.9595 H   0  0  0  0  0  0  0  0  0  0  0  0
   -0.6199    0.4018   -0.9216 H   0  0  0  0  0  0  0  0  0  0  0  0
    0.4846   -3.3254    0.3772 N   0  0  0  0  0  0  0  0  0  0  0  0
   -0.4987   -3.6285    0.3520 H   0  0  0  0  0  0  0  0  0  0  0  0
    1.0131   -3.7977    1.1082 H   0  0  0  0  0  0  0  0  0  0  0  0
    0.9682   -3.4199   -0.5230 H   0  0  0  0  0  0  0  0  0  0  0  0
    0.4913   -2.2989    0.5944 H   0  0  0  0  0  0  0  0  0  0  0  0
   -2.1020   -0.8054    2.3105 N   0  0  0  0  0  0  0  0  0  0  0  0
   -2.9338   -0.4519    2.7793 H   0  0  0  0  0  0  0  0  0  0  0  0
   -2.3081   -1.6928    1.8238 H   0  0  0  0  0  0  0  0  0  0  0  0
   -1.8247   -0.0995    1.5933 H   0  0  0  0  0  0  0  0  0  0  0  0
   -1.2977   -0.9269    2.9524 H   0  0  0  0  0  0  0  0  0  0  0  0
    0.6263    3.5353   -0.6056 S   0  0  0  0  0  0  0  0  0  0  0  0
    0.2661    2.7522   -1.7739 O   0  0  0  0  0  0  0  0  0  0  0  0
    1.9274    4.1706   -0.5483 O   0  0  0  0  0  0  0  0  0  0  0  0
    0.5761    2.6074    0.6729 O   0  0  0  0  0  0  0  0  0  0  0  0
   -0.4593    4.6328   -0.3424 O   0  0  0  0  0  0  0  0  0  0  0  0
   -1.3629    4.2028   -0.3314 H   0  0  0  0  0  0  0  0  0  0  0  0
   -0.2444    2.0239    0.6673 H   0  0  0  0  0  0  0  0  0  0  0  0
    3.2435   -1.3779   -1.2542 S   0  0  0  0  0  0  0  0  0  0  0  0
    3.8754   -1.3614    0.0823 O   0  0  0  0  0  0  0  0  0  0  0  0
    2.3916   -2.5461   -1.5042 O   0  0  0  0  0  0  0  0  0  0  0  0
    2.6142   -0.0819   -1.5977 O   0  0  0  0  0  0  0  0  0  0  0  0
    4.4564   -1.4466   -2.3186 O   0  0  0  0  0  0  0  0  0  0  0  0
    4.9091   -2.2963   -2.2231 H   0  0  0  0  0  0  0  0  0  0  0  0
    1.3708   -0.6671    2.3393 S   0  0  0  0  0  0  0  0  0  0  0  0
    0.6730   -0.6722    1.0136 O   0  0  0  0  0  0  0  0  0  0  0  0
    2.1773    0.5428    2.5370 O   0  0  0  0  0  0  0  0  0  0  0  0
    0.4637   -1.0178    3.4369 O   0  0  0  0  0  0  0  0  0  0  0  0
    2.3838   -1.9193    2.2661 O   0  0  0  0  0  0  0  0  0  0  0  0
    3.0297   -1.7469    1.5348 H   0  0  0  0  0  0  0  0  0  0  0  0
   -2.7146   -2.6016   -0.7713 S   0  0  0  0  0  0  0  0  0  0  0  0
   -2.3207   -3.0996    0.5764 O   0  0  0  0  0  0  0  0  0  0  0  0
   -3.6072   -1.4368   -0.6796 O   0  0  0  0  0  0  0  0  0  0  0  0
   -1.5586   -2.4642   -1.6648 O   0  0  0  0  0  0  0  0  0  0  0  0
   -3.5695   -3.7810   -1.4599 O   0  0  0  0  0  0  0  0  0  0  0  0
   -4.4421   -3.8199   -1.0431 H   0  0  0  0  0  0  0  0  0  0  0  0
   -2.8929    1.8266    0.1366 S   0  0  0  0  0  0  0  0  0  0  0  0
   -1.5507    1.1607    0.4467 O   0  0  0  0  0  0  0  0  0  0  0  0
   -3.8681    1.4582    1.1496 O   0  0  0  0  0  0  0  0  0  0  0  0
   -2.7154    3.2493   -0.1561 O   0  0  0  0  0  0  0  0  0  0  0  0
   -3.3120    1.1822   -1.2620 O   0  0  0  0  0  0  0  0  0  0  0  0
   -3.5270    0.2285   -1.1201 H   0  0  0  0  0  0  0  0  0  0  0  0
  1  5  1  0  0  0  0
  1  3  1  0  0  0  0
  2  1  1  0  0  0  0
  4  1  1  0  0  0  0
  6  7  1  0  0  0  0
  6 10  1  0  0  0  0
  8  6  1  0  0  0  0
  9  6  1  0  0  0  0
 11 15  1  0  0  0  0
 11 13  1  0  0  0  0
 12 11  1  0  0  0  0
 14 11  1  0  0  0  0
 16 17  1  0  0  0  0
 16 20  1  0  0  0  0
 18 16  1  0  0  0  0
 19 16  1  0  0  0  0
 21 23  2  0  0  0  0
 21 25  1  0  0  0  0
 21 24  1  0  0  0  0
 22 21  2  0  0  0  0
 25 26  1  0  0  0  0
 27 24  1  0  0  0  0
 28 29  1  0  0  0  0
 30 28  2  0  0  0  0
 31 28  2  0  0  0  0
 32 33  1  0  0  0  0
 32 28  1  0  0  0  0
 34 36  2  0  0  0  0
 34 37  1  0  0  0  0
 35 34  2  0  0  0  0
 38 34  1  0  0  0  0
 39 38  1  0  0  0  0
 40 42  2  0  0  0  0
 40 41  1  0  0  0  0
 43 40  2  0  0  0  0
 44 45  1  0  0  0  0
 44 40  1  0  0  0  0
 46 47  2  0  0  0  0
 46 48  1  0  0  0  0
 49 46  2  0  0  0  0
 50 51  1  0  0  0  0
 50 46  1  0  0  0  0
M  RAD  4  29   2  37   2  41   2  48   2
M  END
$$$$
