31
1msa1fa1ma1dma-1
S       -2.01998800       0.02148200       0.19420400
O       -1.83134700      -1.05995900       1.18662200
O       -1.29729200      -0.25445800      -1.08454600
O       -1.69208200       1.37643100       0.71797400
H       -0.08853900       1.76316200       0.29806600
C       -3.75852000       0.06156600      -0.19986500
H       -4.03956100      -0.91244500      -0.60058600
H       -4.30600100       0.27288600       0.71880400
H       -3.92463200       0.84574100      -0.93851900
H        4.58594000      -0.61418200       0.41275100
H        1.42840100      -1.93346900       0.09956700
C        3.48680900      -0.61259500       0.28142200
O        2.92965700      -1.73902700       0.28657800
O        2.94429600       0.51124300       0.14332500
N        0.40606800      -2.24923800      -0.07347800
H       -0.17425800      -2.07055200       0.75659800
C        0.36463900      -3.66727400      -0.47447600
H       -0.66823700      -3.97657300      -0.63904400
H        0.94056600      -3.79412600      -1.39103400
H        0.81296900      -4.27305100       0.31277700
H       -0.03276700      -1.63152400      -0.77401000
N        0.84196400       2.05512200      -0.07834400
C        1.34038700       3.21232500       0.68937300
C        0.69099200       2.31120200      -1.52538600
H        1.53916600       1.26679300       0.04342800
H        0.62916500       4.03637800       0.60820900
H        1.44764100       2.91923200       1.73352800
H        2.31387300       3.50838100       0.29629300
H        0.05008400       3.18234300      -1.67405200
H        1.67619900       2.48620600      -1.96058600
H        0.22188200       1.43472200      -1.97273600
31
1msa1fa1ma1dma-2
S       -2.12849900      -0.24433500       0.02203900
O       -2.27578200      -1.43593700       0.86768800
O       -1.10168100      -0.42620400      -1.05747300
O       -1.86193300       1.01881900       0.77180800
H       -0.28113800       1.50125400       0.44462600
C       -3.68344600       0.00705600      -0.81572500
H       -3.90873700      -0.89260000      -1.38870100
H       -4.44712700       0.17902800      -0.05687600
H       -3.59107700       0.87169200      -1.47299400
H        4.62936000      -0.12889900      -0.34979300
H        1.78756400      -1.92784100      -0.60109100
C        3.55773100      -0.40006100      -0.29253300
O        3.22229600      -1.46326600      -0.87101100
O        2.81120800       0.38205700       0.35196300
N        0.81065800      -2.25366900      -0.26142600
H        0.08882300      -1.58494600      -0.61262000
C        0.80677400      -2.28083200       1.22034900
H       -0.20979600      -2.43364900       1.58198700
H        1.47846200      -3.06751900       1.56525400
H        1.18510600      -1.31758400       1.56536700
H        0.59508200      -3.16875800      -0.64898900
N        0.65320900       1.89197300       0.17447800
C        1.02930600       2.95051900       1.13125100
C        0.57649800       2.34452400      -1.22923300
H        1.38216200       1.13319500       0.23030300
H        0.27847400       3.74218300       1.11013400
H        1.07761400       2.51557000       2.12926400
H        2.00932400       3.34651000       0.86196600
H       -0.14399900       3.16097300      -1.30568200
H        1.56366300       2.68027600      -1.55159900
H        0.24111400       1.50136500      -1.83299000
31
1msa1fa1ma1dma-3
S        2.04442900       0.19427000       0.20081400
O        1.60245500       1.39445700       0.96344300
O        1.56632800       0.20562100      -1.19825200
O        1.70837400      -1.08115500       0.90052700
H        0.23319200      -1.63329700       0.34574900
C        3.82573500       0.26870000       0.16839000
H        4.18631000       0.26033200       1.19707700
H        4.19244400      -0.60150300      -0.37609600
H        4.11726500       1.19053100      -0.33512900
H       -4.50491100       0.18909300       0.58909300
H       -1.66691700       2.03191300       0.51300000
C       -3.43840700       0.44281200       0.43494000
O       -3.05279000       1.53332000       0.92458500
O       -2.74871700      -0.38202900      -0.21814900
N       -0.76990500       2.45588200       0.07351600
H       -0.71858800       3.43864100       0.33107600
C       -0.84151600       2.28553100      -1.39542000
H        0.10975800       2.55733600      -1.85098000
H       -1.04739900       1.23526100      -1.59699700
H       -1.65526300       2.89696800      -1.78692100
H        0.08822900       1.99502700       0.45569400
N       -0.66118100      -1.98949100      -0.07293000
C       -1.19197400      -3.08495000       0.75954400
C       -0.40280500      -2.36299900      -1.47922900
H       -1.36981200      -1.20938300      -0.06974400
H       -0.46609800      -3.89919200       0.79429500
H       -1.36497500      -2.70470900       1.76636500
H       -2.13408800      -3.43495900       0.33497400
H        0.26491100      -3.22629800      -1.50625700
H       -1.35095900      -2.59975800      -1.96449500
H        0.08224300      -1.51534200      -1.96441700
