40
2sa1am1dma1eda-45
S        0.71482400       1.85813900      -0.33591700
O        0.91261400       0.68283900      -1.26446000
O        1.74989800       2.86545600      -0.44563500
O        0.90662500       1.22640300       1.13480400
O       -0.68359800       2.32639100      -0.41648800
H        0.38954100       0.37703900       1.18976600
H       -0.40685100      -0.37970200      -1.30457800
S       -0.74438500      -1.99837700       0.09101600
O       -1.15948700      -1.00191400      -1.11989500
O       -0.33264500      -1.09863700       1.20744000
O       -1.97664600      -2.73291200       0.35546700
O        0.38890500      -2.81180700      -0.39574400
H        1.95082800      -2.05080400      -0.48197900
N       -4.14683200      -1.16467500      -0.92769600
H       -3.87753300      -1.20768500      -1.90625200
H       -5.12704500      -1.41857100      -0.86391500
H       -3.59273800      -1.88514600      -0.45539500
C       -3.88995000       2.28877400      -0.06695500
N       -3.03687800       1.12698200       0.24960700
C       -2.92372400       0.84336200       1.69730600
H       -3.42825900       0.26882300      -0.23842400
H       -3.46487700       3.18245400       0.39165500
H       -3.91858700       2.41872200      -1.14894500
H       -4.89818500       2.11147400       0.31209100
H       -2.50132700       1.71618300       2.19806900
H       -3.91553300       0.62224500       2.09610400
H       -2.26088900      -0.01269400       1.83106600
H       -2.08570200       1.33356600      -0.11595100
C        3.23890900      -0.99844000       0.82657200
C        4.17731300       0.19546200       0.69876900
N        5.14308900      -0.06557100      -0.37155900
N        2.64376500      -1.27146100      -0.50471100
H        3.40223200      -1.42777000      -1.17203700
H        2.09388100      -0.44141900      -0.83569500
H        2.42590700      -0.80272200       1.52526100
H        3.77192600      -1.89937900       1.14274400
H        4.63800000       0.39001100       1.67504500
H        3.58963700       1.08178600       0.44003300
H        5.97964300      -0.52110300      -0.02487300
H        5.42627800       0.79006400      -0.83292600
40
2sa1am1dma1eda-44
S        0.05593600      -1.97206500      -0.38625500
O        0.19828200      -1.30745800       0.94530800
O        1.38522700      -2.31275600      -0.93339000
O       -0.53882400      -0.80928800      -1.36213800
O       -0.96074800      -3.01024500      -0.43460400
H        0.10350800      -0.03917300      -1.38377300
H       -0.11269600       0.30083000       1.09006200
S        0.85898100       2.00679700       0.19383200
O       -0.34388100       1.26516800       0.98307500
O        0.38224900       3.37664500       0.05624900
O        2.07489700       1.81615000       1.01400400
O        0.99542300       1.26795100      -1.09863300
N       -2.47506300       3.30268300      -0.90360600
H       -1.50760400       3.41307700      -0.57906900
H       -3.04396200       3.93984300      -0.35409600
H       -2.50168400       3.63621800      -1.86273700
C        4.17664100      -0.12314000      -0.85501900
N        3.20660200      -0.55217100       0.17305100
C        3.78338700      -1.29615300       1.31065100
H        2.72473200       0.30348700       0.53327200
H        4.64600600      -1.00232900      -1.29891800
H        3.63190600       0.43845000      -1.61404300
H        4.93056700       0.51623900      -0.39352400
H        4.28243600      -2.19238900       0.93927100
H        4.49484200      -0.65795600       1.83684000
H        2.96776100      -1.57855000       1.97636200
H        2.48588700      -1.16029600      -0.27656600
C       -3.34040600       0.31151000       0.91620200
N       -2.88219100       0.55381500      -0.47370200
C       -3.29130900      -1.19279400       1.19891800
N       -3.84821900      -1.93260600       0.06602900
H       -2.82228300       1.59099700      -0.69801400
H       -3.51138400       0.04017800      -1.09700300
H       -2.69014900       0.87667800       1.58562300
H       -4.36031700       0.69978300       0.98748200
H       -3.82963100      -1.38679000       2.13261500
H       -2.25047300      -1.48827300       1.36201300
H       -4.68577500      -2.44414500       0.30958500
H       -3.15953200      -2.58854900      -0.29413700
H       -1.94960200       0.13905800      -0.63836300
40
2sa1am1dma1eda-29
S       -1.14454900       2.18248900      -0.01243800
O       -0.00111300       2.34126000       0.92394700
O       -2.14007400       1.21995500       0.59924600
O       -1.73414200       3.40068100      -0.52017800
O       -0.57869300       1.40209500      -1.29009400
H       -0.22629900       0.48587100      -1.03424800
S        0.51731700      -1.81672000       0.32911700
O        1.36016600      -2.97189200       0.05022100
O        0.33863900      -0.94747500      -0.90128100
O       -0.85496100      -2.16305100       0.85716800
O        1.17017100      -0.91522700       1.40049500
N       -0.82886400       0.11384400       2.73286800
H       -1.42225900       0.52748200       1.97283600
H       -1.31603000      -0.64958800       3.19345200
H        0.04774000      -0.28919000       2.24722900
H       -0.58076700       0.84604000       3.39184700
C       -4.07056300      -1.53888700      -0.17660200
N       -2.74925500      -1.13229000      -0.68902300
C       -2.57013400      -1.32936400      -2.14227000
H       -2.58236300      -0.14023100      -0.42188000
H       -4.21092300      -2.60710600      -0.34862000
H       -4.10932700      -1.33358400       0.89336700
H       -4.85292200      -0.97282200      -0.68510600
H       -2.76457500      -2.37596700      -2.38295800
H       -3.26142400      -0.68302900      -2.68556400
H       -1.53857400      -1.08429200      -2.39035700
H       -1.98928200      -1.64663800      -0.14910800
C        3.90134700      -0.22914400      -1.04844200
N        4.96451300       0.13897000      -0.10863000
C        2.87005800       0.89126300      -1.10603700
N        2.41785600       1.16497800       0.27968600
H        5.71698200       0.63960900      -0.56787500
H        5.36508700      -0.67728700       0.33679800
H        4.26039000      -0.43370000      -2.06452100
H        3.40811600      -1.13935100      -0.69214700
H        2.00274500       0.59392700      -1.69308100
H        3.29358100       1.81371900      -1.51343100
H        1.97354400       0.29932000       0.70727100
H        1.68572300       1.89224000       0.35791800
H        3.24261400       1.38978000       0.84089900
