29
1sa1msa1fa2am-1
S        1.18837900       1.42384500      -0.10484000
O        0.52721500       1.23568700       1.24067800
O        2.65047400       1.39773800      -0.00468500
O        0.86214800       0.07853900      -0.91389700
O        0.58482000       2.55251300      -0.81271200
H       -1.52443300       2.64411300      -0.25459700
S       -2.59884100      -0.76549600      -0.18362700
O       -3.29289900       0.16492100       0.75038200
O       -1.85032600      -1.84383300       0.50424200
O       -1.76233500      -0.00874300      -1.16008700
H       -0.11778500       0.02137800      -1.09522600
C       -3.87290900      -1.57435900      -1.12668800
H       -4.50970100      -2.12222900      -0.43217800
H       -4.44194400      -0.80995400      -1.65561300
H       -3.39170500      -2.25461700      -1.82942400
H        4.67223500      -2.53389500      -0.71515700
H        3.54196000       0.08186500      -0.46067500
C        3.94210100      -1.80876000      -0.33379100
O        4.18579600      -0.61038800      -0.78370000
O        3.04375900      -2.14666900       0.42112100
N        0.63521400      -1.47431500       1.63588700
H        1.47079300      -1.73853400       1.07938300
H       -0.25369400      -1.73303600       1.15580100
H        0.67911000      -1.90944900       2.55252400
H        0.63304800      -0.43401300       1.71200900
N       -1.84442100       2.46029400       0.70228300
H       -2.54422100       1.67533500       0.71006700
H       -2.20256200       3.30759000       1.13184400
H       -0.98363200       2.11060700       1.18166300
29
1sa1msa1fa2am-5
S       -2.60704000      -0.57504900      -0.18965700
O       -2.06245800       0.53044900       0.60605900
O       -2.36967500      -0.45185400      -1.64254400
O       -2.24164700      -1.90382500       0.34980300
O       -4.21119500      -0.42971000       0.00382900
H       -4.64516700      -1.07738400      -0.56822400
S        2.63064200      -0.53213500      -0.15562900
O        2.20032200      -1.43784500       0.94268600
O        2.45276300       0.90583400       0.19591700
O        2.00920700      -0.85890700      -1.46305800
C        4.38086200      -0.78800700      -0.34324900
H        4.86092800      -0.55778100       0.60768000
H        4.54014000      -1.83126100      -0.61572200
H        4.73674300      -0.12173300      -1.12886900
H       -1.16304900       3.00618800       1.50156900
H        1.23137100       1.51115200       1.04123600
C       -0.33430200       2.62180200       0.89861500
O        0.45094900       1.82138400       1.59441000
O       -0.17104700       2.92380700      -0.26865000
N       -0.23688600      -1.15436400       2.07711800
H        0.71172400      -1.31181500       1.64743200
H       -0.97350100      -1.64066100       1.51646200
H       -0.24604600      -1.46542200       3.04397600
H       -0.45572000      -0.15177500       2.02362600
N       -0.00437400       0.87752700      -2.18312900
H       -0.92060000       0.39187400      -2.05320100
H        0.07466300       1.22372900      -3.13492900
H        0.04944800       1.67205900      -1.51714300
H        0.77312000       0.20820400      -1.97705900
29
1sa1msa1fa2am-2
S        2.98433600       0.27505800       0.08341100
O        2.88257600       0.86784000       1.41603600
O        3.32833100      -1.15906900       0.05611300
O        1.81484200       0.58187600      -0.78719900
O        4.18693400       1.04674500      -0.69119900
H        4.98370800       0.98287400      -0.14698000
S       -1.81254500      -1.36913100       0.34059300
O       -1.49653500      -0.81983500       1.67714900
O       -1.08461600      -2.62033100       0.00938200
O       -1.61458000      -0.34433600      -0.73567200
C       -3.54269400      -1.79118300       0.35027500
H       -3.69849000      -2.54311100       1.12405300
H       -4.11390000      -0.88890200       0.57093600
H       -3.80312000      -2.18632200      -0.63158800
H       -3.77788600       3.53429600      -0.92628000
H       -2.56889700       0.93557400      -1.00120900
C       -3.03257800       2.78393000      -0.63455000
O       -3.23758700       1.64417700      -1.24404400
O       -2.14626800       3.03460700       0.16401100
N        1.15012700      -2.04317400      -1.40228300
H        0.30987400      -2.36645000      -0.85623500
H        1.23889200      -2.55171900      -2.27661700
H        1.05014100      -1.02990800      -1.56970300
H        2.01796500      -2.10446300      -0.83732100
N       -0.00575900       1.48117400       1.13025500
H       -0.46707700       0.62916700       1.50572500
H        0.65051500       1.86533100       1.80752300
H        0.54972000       1.20466800       0.29696900
H       -0.74382500       2.14824400       0.84988700
