22
2msa1am-02
S       -1.94292600      -0.31881300      -0.07667000
O       -1.30663000      -1.36095600      -0.88512500
O       -2.38555400       0.88736800      -0.84064100
O       -1.08913600       0.12330000       1.08523600
H       -0.68465600       2.69022700       0.89540900
C       -3.41772300      -1.01092700       0.64115500
H       -4.08006100      -1.30207900      -0.17433000
H       -3.12744500      -1.88110500       1.23019800
H       -3.88659400      -0.25435800       1.26986500
S        2.23286000      -0.11137800       0.05463700
O        3.62340200      -0.09814300       0.44871700
O        1.67216400       1.12269700      -0.53087700
O        1.37807000      -0.51174700       1.31461600
H        0.38541100      -0.31311000       1.19915400
C        1.93547200      -1.42348500      -1.10320100
H        2.47518100      -1.17230600      -2.01697700
H        2.32435900      -2.34241300      -0.66431900
H        0.85824500      -1.49048100      -1.27730600
N       -0.52945500       2.64389200      -0.11001100
H       -0.47445200       3.57452900      -0.51372600
H       -1.32429600       2.06435400      -0.51784400
H        0.35654100       2.10887100      -0.27064600
22
2msa1am-01
S        1.93286500      -0.27886500      -0.04007100
O        0.99160500      -1.30943800      -0.56032300
O        1.49890400       0.27216200       1.26856300
O        2.20329800       0.80496100      -1.02836100
C        3.47300300      -1.13196100       0.21089400
H        3.30447900      -1.92567700       0.93870200
H        3.79100600      -1.54511600      -0.74622400
H        4.20113100      -0.41172000       0.58377400
S       -2.24680700      -0.13062600      -0.06312000
O       -3.66101300      -0.33066300      -0.27917100
O       -1.76288000       1.26253400      -0.04390100
O       -1.47278700      -0.94270600      -1.16386800
H       -0.47874100      -1.02784800      -0.96922700
C       -1.73568800      -0.88508000       1.46535600
H       -2.29490200      -0.39182600       2.26145400
H       -1.98716400      -1.94451700       1.41651300
H       -0.66071900      -0.73230800       1.58997100
N        0.57474800       2.61526600       0.08587900
H        0.53418800       3.61949400      -0.05745700
H       -0.36285100       2.16475500      -0.02385000
H        1.24090500       2.12288300      -0.56421500
H        0.91160600       2.36432000       1.01943300
22
2msa1am-03
S       -2.05354800      -0.26102200      -0.01605700
O       -1.83015300       0.51636200       1.23053900
O       -1.11025200      -1.41070500      -0.15507000
O       -2.06872600       0.61654300      -1.21590500
C       -3.65921900      -1.01460100       0.11335700
H       -4.39607100      -0.22034800       0.23284900
H       -3.84147300      -1.57807300      -0.80164800
H       -3.65331600      -1.67379100       0.98127000
S        2.15917200      -0.12968400       0.09875200
O        2.03069600      -0.11957100       1.54478400
O        1.85399600       1.14333800      -0.58787400
O        1.35813000      -1.29546000      -0.56052400
H        0.33536000      -1.29288600      -0.36163000
C        3.80188700      -0.60575400      -0.37359600
H        4.01601000      -1.57189900       0.08239900
H        3.84991100      -0.66184700      -1.46049700
H        4.47625800       0.16100800       0.00845800
N       -0.46780100       2.49159000      -0.04354100
H       -1.07657000       2.13372300      -0.80525000
H       -0.47544000       3.50338500       0.03373600
H       -0.86677100       2.01676900       0.79179600
H        0.49119000       2.11219600      -0.20596600
