27
2fa1tma1am-1
H       -3.21644900      -2.62939300      -0.00311100
H       -2.06919400      -0.15968300      -0.94472300
C       -2.56228200      -1.74925700       0.06398000
O       -2.66338500      -0.99097800      -0.98921300
O       -1.84771800      -1.56518900       1.03999900
H       -1.91717300       2.85879100      -1.01914500
H       -0.17571800       1.34906200       1.36840600
C       -1.26830700       2.18685400      -0.42583500
O       -0.73561500       2.65832300       0.60297100
O       -1.11555700       1.00294700      -0.85011700
N        2.13953400      -0.38138900      -0.07522200
C        2.42147100       0.87352100      -0.77071400
H        1.47784500       1.34041700      -1.06229400
H        2.95754200       1.55338800      -0.10239300
H        3.03520500       0.71121500      -1.67241100
C        3.36189600      -1.01407000       0.40301200
H        3.89416000      -0.33482500       1.07532900
H        3.11542800      -1.92651200       0.95393400
H        4.04033400      -1.28302600      -0.42454800
C        1.37042600      -1.28360600      -0.93218000
H        1.10445100      -2.18534100      -0.37247800
H        0.45326300      -0.77885800      -1.24436100
H        1.94186200      -1.58035500      -1.82748900
N        0.10793400       0.37808400       1.71372300
H        0.29104700       0.36690800       2.71211000
H        0.95650500       0.07388600       1.15639100
H       -0.66240800      -0.27401600       1.47857900
27
2fa1tma1am-3
C       -0.09117400       2.12769400      -0.78727900
O        0.34972900       1.26715200       0.07158400
O       -1.16578500       2.05359100      -1.37901300
H        0.58519600       2.98250700      -0.97977800
H        4.07828800      -0.86375000       0.09673600
H        1.84610100       0.93555600       0.23035800
C        3.01923400      -0.58271400       0.00005100
O        2.82420600       0.66772000       0.33581800
O        2.16989600      -1.37200300      -0.37417400
N       -1.17883800      -0.91353000      -0.24947400
C       -2.58523300      -0.48507100      -0.05684600
H       -2.72456700      -0.26314100       1.00177600
H       -2.74379400       0.41517700      -0.65224900
H       -3.25102600      -1.29271300      -0.37197000
C       -0.89087700      -1.24170900      -1.66671400
H       -1.14108100      -0.36812400      -2.27031700
H        0.17264300      -1.46644000      -1.75303100
H       -1.49392000      -2.10288200      -1.96557000
C       -0.80616200      -2.01590600       0.66863500
H        0.24826200      -2.24547300       0.51546500
H       -0.97793200      -1.66860100       1.68860100
H       -1.42706200      -2.88794100       0.44638800
H       -0.56703700      -0.06880200      -0.02883200
N       -1.01535700       0.65994900       2.72589800
H       -1.68915700       1.33619900       3.07072100
H       -0.49105700       1.10708300       1.97275700
H       -0.36359400       0.48097400       3.48317800
27
2fa1tma1am-4
C        0.47235400       2.06006600      -0.81394400
O       -0.25906000       1.18638200      -0.21514500
O        1.68158700       1.94407100      -1.02188300
H       -0.05777600       2.97227600      -1.14821200
H       -4.30840900      -0.07028600       0.44506900
H       -1.77407200       1.20187100      -0.02935300
C       -3.22160100      -0.04680600       0.27695300
O       -2.78498500       1.17590900       0.12329200
O       -2.55057000      -1.06455900       0.24619300
N        0.89455200      -1.20748600      -0.21840900
C        0.52331200      -1.95662000       1.00628600
H        1.01751600      -1.47316900       1.85006800
H       -0.56058900      -1.91112000       1.11786800
H        0.85576900      -2.99314100       0.90433400
C        0.19086400      -1.72318400      -1.41686500
H       -0.88229500      -1.65529200      -1.23611800
H        0.46710300      -1.10361200      -2.27125400
H        0.48850600      -2.75989500      -1.59271400
C        2.36252900      -1.16404200      -0.41762600
H        2.58203500      -0.45352100      -1.21481500
H        2.81644400      -0.81123000       0.50762200
H        2.71642700      -2.16723200      -0.66971300
H        0.53524700      -0.20708800      -0.10210800
N        1.93103000       0.98116900       2.00442400
H        2.50510300       1.36576000       2.74723400
H        0.96956200       1.25293500       2.18716800
H        2.18984200       1.44606900       1.13434900
