39
3sa1am2ma-312000_1_165
S       -2.44610900      -1.60707200      -0.35799000
O       -2.35133000      -0.71326800      -1.53128800
O       -1.32451100      -2.55411600      -0.26153100
O       -2.75987600      -0.90190500       0.89987000
O       -3.77978000      -2.50553600      -0.58081200
H       -3.61002300      -3.12696400      -1.30190000
S        3.22164200      -0.70675400      -0.18830600
O        3.27528100       0.75416900      -0.39977500
O        3.22322300      -1.09634200       1.23318600
O        2.17526700      -1.39105500      -0.96975400
O        4.58644400      -1.28668500      -0.83883500
H        5.33366700      -0.81980900      -0.44005700
S        0.25607400       2.28008600       0.16099500
O       -0.15800100       0.86305900       0.38205800
O        0.39991800       2.54860800      -1.28375400
O       -0.64055900       3.21097900       0.87209700
O        1.66621500       2.47945700       0.85259300
H        2.33017500       1.88071300       0.41379900
N        0.26042400       0.00143000      -2.37374100
H       -0.68380700      -0.30952900      -2.07575100
H        0.36991600       1.00350900      -2.10452900
H        0.98610300      -0.54936600      -1.86373400
H        0.37463900      -0.11988100      -3.37552000
C       -0.15496800      -1.74066400       2.92338000
N        0.47835200      -1.48262300       1.61464900
H        1.50971500      -1.56778000       1.62785700
H        0.08334500      -2.09567100       0.88531500
H        0.23381100      -1.03015000       3.65274900
H       -1.23235100      -1.61792300       2.81136700
H        0.07319600      -2.75757200       3.24203500
H        0.27625900      -0.51796500       1.27976400
C       -3.49962700       2.16002600      -0.49037300
N       -2.98740100       1.83307300       0.86341700
H       -2.10231600       2.37183000       1.03359900
H       -3.66590800       2.05984100       1.58692200
H       -2.74193600       1.86049000      -1.21199900
H       -4.41257400       1.59590500      -0.67743400
H       -3.68059900       3.23220700      -0.55711200
H       -2.77739100       0.80971000       0.91869000
39
3sa1am2ma-312000_2_215
S        0.46393800      -1.83296900       0.80320800
O        0.62583500      -2.00004800      -0.65986300
O        1.54789900      -2.47870300       1.55698000
O        0.30236900      -0.38961700       1.15999000
O       -0.87266100      -2.54152800       1.24913400
H       -1.64422400      -1.97480900       0.97254900
H        1.53343700       0.71278500       1.22068100
S       -3.40616100      -0.11094300      -0.49674800
O       -2.84992900      -0.56603100      -1.78613300
O       -2.77901700      -0.78029300       0.66647100
O       -3.46885700       1.34686700      -0.33174800
O       -4.96001500      -0.55296900      -0.50968600
H       -5.01437800      -1.46896400      -0.81511500
S        2.19907200       1.90975600      -0.42624100
O        0.77574500       2.24021100      -0.76801900
O        3.12268400       3.01655400      -0.49553800
O        2.17033500       1.46874700       1.12672800
O        2.59663800       0.67678200      -1.17007100
N       -0.19203300       0.08256900      -2.24914700
H       -1.22334200      -0.04377000      -2.22492600
H        0.15758200       0.08362800      -3.20261900
H        0.10109200       0.96194800      -1.77474800
H        0.22209600      -0.71098200      -1.71288400
C       -1.13494200       2.73298900       2.39714900
N       -1.20804300       1.92255800       1.16384400
H       -0.97789300       0.93160000       1.34127400
H       -2.14481400       1.92307900       0.71724100
H       -0.12126700       2.67818800       2.79377000
H       -1.38057400       3.76760400       2.16023500
H       -1.84418400       2.34104500       3.12534300
H       -0.50882100       2.22982400       0.45907700
C        3.88971400      -2.48031000      -0.98670500
N        3.67551500      -1.45599500       0.06463200
H        3.25830100      -0.58470400      -0.36698700
H        3.00356500      -1.82329800       0.77291900
H        4.52735300      -2.06554200      -1.76681300
H        4.35030500      -3.36438300      -0.54680100
H        2.91029300      -2.73546700      -1.39021700
H        4.54096700      -1.19106900       0.53059400
39
3sa1am2ma-312000_1_192
S       -2.43434500      -1.68604500      -0.20825900
O       -1.25885100      -2.54331800      -0.44162700
O       -2.41120200      -1.02466400       1.11197000
O       -2.75026700      -0.77788200      -1.32671700
O       -3.72115900      -2.67486200      -0.19911200
H       -3.54126100      -3.40266500       0.41155300
S        0.19076000       2.27232600      -0.03569800
O        0.33830800       2.29670300       1.43117900
O       -0.20566200       0.90436500      -0.48959300
O       -0.72243700       3.29433700      -0.58186900
O        1.59364800       2.60080400      -0.69247100
H        2.26566000       1.93991500      -0.37045400
S        3.18745900      -0.70149900      -0.25966700
O        3.11896700      -0.81312900      -1.73012700
O        3.23010300       0.69562000       0.21893100
O        2.19902100      -1.54696400       0.42879400
O        4.59723500      -1.35617500       0.19316300
H        5.31211500      -0.80321400      -0.15104300
N        0.40699000      -1.11218400      -2.17430400
H        0.02229800      -1.14034700      -3.11351600
H        1.44434300      -1.18264700      -2.17677000
H        0.16419200      -0.21217400      -1.70417500
H       -0.02724300      -1.85240200      -1.59489800
C        0.47366600      -0.94085300       3.40458100
N        0.23231400      -0.44519200       2.03638400
H        0.91831600      -0.85689900       1.37243800
H       -0.71774500      -0.67765200       1.69829900
H        1.48628600      -0.67313900       3.70510100
H       -0.24638900      -0.49014600       4.08754600
H        0.36520900      -2.02506600       3.41578800
H        0.33183300       0.58569500       1.96267700
C       -3.53812300       1.97789000       0.61311400
N       -3.05005500       1.89906500      -0.78607600
H       -2.82320500       0.90554900      -1.02347400
H       -3.74733900       2.23375200      -1.44717900
H       -2.75331000       1.58989400       1.25967500
H       -3.75010700       3.01721400       0.86151800
H       -4.42785200       1.35890500       0.72140600
H       -2.17741700       2.47619100      -0.87487300
