2PZ-2SA.log
 OpenBabel07191916323D
Gaussian 09 #p opt freq wB97XD/6-31++G(d,p) iop(5/13=1) iop(1/11=1)
 46 44  0  0  0  0  0  0  0  0999 V2000
    3.8051   -1.0125   -1.9189 C   0  0  0  0  0  0  0  0  0  0  0  0
    3.2275    0.3869   -1.7594 C   0  0  0  0  0  0  0  0  0  0  0  0
    2.6311    0.5122   -0.4053 N   0  0  0  0  0  0  0  0  0  0  0  0
    3.5951    0.1944    0.6852 C   0  0  0  0  0  0  0  0  0  0  0  0
    4.1715   -1.1936    0.4564 C   0  0  0  0  0  0  0  0  0  0  0  0
    4.7903   -1.2399   -0.8680 N   0  0  0  0  0  0  0  0  0  0  0  0
    4.2930   -1.0827   -2.8946 H   0  0  0  0  0  0  0  0  0  0  0  0
    2.4375    0.5840   -2.4867 H   0  0  0  0  0  0  0  0  0  0  0  0
    4.3812    0.9536    0.6634 H   0  0  0  0  0  0  0  0  0  0  0  0
    4.9339   -1.3818    1.2161 H   0  0  0  0  0  0  0  0  0  0  0  0
    2.9776   -1.7422   -1.8939 H   0  0  0  0  0  0  0  0  0  0  0  0
    4.0115    1.1424   -1.8562 H   0  0  0  0  0  0  0  0  0  0  0  0
    3.3713   -1.9405    0.5867 H   0  0  0  0  0  0  0  0  0  0  0  0
    3.0445    0.2452    1.6252 H   0  0  0  0  0  0  0  0  0  0  0  0
    5.2488   -2.1326   -1.0068 H   0  0  0  0  0  0  0  0  0  0  0  0
    2.2159    1.4530   -0.2606 H   0  0  0  0  0  0  0  0  0  0  0  0
    0.2173   -1.6134    1.0775 S   0  0  0  0  0  0  0  0  0  0  0  0
   -1.2418   -1.7434    1.2914 O   0  0  0  0  0  0  0  0  0  0  0  0
    0.4704   -1.0909   -0.3072 O   0  0  0  0  0  0  0  0  0  0  0  0
    1.8095   -0.1487   -0.3478 H   0  0  0  0  0  0  0  0  0  0  0  0
   -1.9222   -0.6217    0.1850 H   0  0  0  0  0  0  0  0  0  0  0  0
    0.7186   -0.4175    2.0499 O   0  0  0  0  0  0  0  0  0  0  0  0
    1.0409   -2.7470    1.4496 O   0  0  0  0  0  0  0  0  0  0  0  0
   -0.2833    2.5879    0.1542 S   0  0  0  0  0  0  0  0  0  0  0  0
   -0.7551    1.7535    1.2702 O   0  0  0  0  0  0  0  0  0  0  0  0
   -0.9263    4.0360    0.5031 O   0  0  0  0  0  0  0  0  0  0  0  0
   -0.5451    4.6885   -0.0999 H   0  0  0  0  0  0  0  0  0  0  0  0
    0.1654    0.3825    1.8861 H   0  0  0  0  0  0  0  0  0  0  0  0
    1.1756    2.8076    0.1074 O   0  0  0  0  0  0  0  0  0  0  0  0
   -0.8458    2.1763   -1.1482 O   0  0  0  0  0  0  0  0  0  0  0  0
   -3.6643    0.4771   -0.0376 C   0  0  0  0  0  0  0  0  0  0  0  0
   -4.5927   -0.6636    0.3491 C   0  0  0  0  0  0  0  0  0  0  0  0
   -4.8196   -1.5071   -0.8208 N   0  0  0  0  0  0  0  0  0  0  0  0
   -3.5763   -2.1206   -1.2807 C   0  0  0  0  0  0  0  0  0  0  0  0
   -2.6113   -1.0259   -1.7111 C   0  0  0  0  0  0  0  0  0  0  0  0
   -2.4005   -0.0886   -0.5773 N   0  0  0  0  0  0  0  0  0  0  0  0
   -3.3942    1.0976    0.8189 H   0  0  0  0  0  0  0  0  0  0  0  0
   -5.5450   -0.2440    0.6829 H   0  0  0  0  0  0  0  0  0  0  0  0
   -3.0889   -2.7325   -0.5039 H   0  0  0  0  0  0  0  0  0  0  0  0
   -1.6313   -1.4311   -1.9690 H   0  0  0  0  0  0  0  0  0  0  0  0
   -4.1123    1.0990   -0.8165 H   0  0  0  0  0  0  0  0  0  0  0  0
   -4.1449   -1.2153    1.1929 H   0  0  0  0  0  0  0  0  0  0  0  0
   -3.0174   -0.4539   -2.5493 H   0  0  0  0  0  0  0  0  0  0  0  0
   -3.7878   -2.7606   -2.1410 H   0  0  0  0  0  0  0  0  0  0  0  0
   -1.7663    0.6841   -0.8556 H   0  0  0  0  0  0  0  0  0  0  0  0
   -5.5058   -2.2220   -0.6102 H   0  0  0  0  0  0  0  0  0  0  0  0
  1 11  1  0  0  0  0
  1  2  1  0  0  0  0
  1  6  1  0  0  0  0
  2  3  1  0  0  0  0
  3 20  1  0  0  0  0
  3 16  1  0  0  0  0
  3  4  1  0  0  0  0
  4 14  1  0  0  0  0
  5 13  1  0  0  0  0
  5  4  1  0  0  0  0
  5 10  1  0  0  0  0
  6  5  1  0  0  0  0
  7  1  1  0  0  0  0
  8  2  1  0  0  0  0
  9  4  1  0  0  0  0
 12  2  1  0  0  0  0
 15  6  1  0  0  0  0
 17 18  2  0  0  0  0
 17 23  1  0  0  0  0
 17 22  1  0  0  0  0
 19 17  2  0  0  0  0
 24 26  1  0  0  0  0
 24 25  1  0  0  0  0
 27 26  1  0  0  0  0
 28 22  1  0  0  0  0
 29 24  2  0  0  0  0
 30 24  2  0  0  0  0
 31 32  1  0  0  0  0
 31 37  1  0  0  0  0
 32 38  1  0  0  0  0
 32 42  1  0  0  0  0
 33 46  1  0  0  0  0
 33 32  1  0  0  0  0
 34 33  1  0  0  0  0
 34 39  1  0  0  0  0
 35 34  1  0  0  0  0
 35 36  1  0  0  0  0
 36 31  1  0  0  0  0
 36 21  1  0  0  0  0
 40 35  1  0  0  0  0
 41 31  1  0  0  0  0
 43 35  1  0  0  0  0
 44 34  1  0  0  0  0
 45 36  1  0  0  0  0
M  RAD  2  23   2  25   2
M  END
$$$$
