2PZ.log
 OpenBabel07191916323D
Gaussian 09 #p opt freq wB97XD/6-31++G(d,p) iop(5/13=1) iop(1/11=1)
 32 32  0  0  0  0  0  0  0  0999 V2000
    1.4046   -0.1475   -1.0650 C   0  0  0  0  0  0  0  0  0  0  0  0
    1.9745   -1.3135   -0.2683 C   0  0  0  0  0  0  0  0  0  0  0  0
    3.3973   -1.0877   -0.0325 N   0  0  0  0  0  0  0  0  0  0  0  0
    3.6261    0.1492    0.7071 C   0  0  0  0  0  0  0  0  0  0  0  0
    3.0620    1.3173   -0.0935 C   0  0  0  0  0  0  0  0  0  0  0  0
    1.6383    1.0895   -0.3213 N   0  0  0  0  0  0  0  0  0  0  0  0
    0.3279   -0.2933   -1.1926 H   0  0  0  0  0  0  0  0  0  0  0  0
    1.8482   -2.2430   -0.8313 H   0  0  0  0  0  0  0  0  0  0  0  0
    3.1389    0.1421    1.6991 H   0  0  0  0  0  0  0  0  0  0  0  0
    3.1883    2.2482    0.4680 H   0  0  0  0  0  0  0  0  0  0  0  0
    1.8888   -0.1338   -2.0572 H   0  0  0  0  0  0  0  0  0  0  0  0
    1.4036   -1.4009    0.6747 H   0  0  0  0  0  0  0  0  0  0  0  0
    3.6302    1.3988   -1.0371 H   0  0  0  0  0  0  0  0  0  0  0  0
    4.7024    0.2834    0.8517 H   0  0  0  0  0  0  0  0  0  0  0  0
    1.2268    1.8767   -0.8096 H   0  0  0  0  0  0  0  0  0  0  0  0
    3.8067   -1.8749    0.4570 H   0  0  0  0  0  0  0  0  0  0  0  0
   -3.6261   -0.1492   -0.7071 C   0  0  0  0  0  0  0  0  0  0  0  0
   -3.0620   -1.3173    0.0935 C   0  0  0  0  0  0  0  0  0  0  0  0
   -1.6383   -1.0895    0.3213 N   0  0  0  0  0  0  0  0  0  0  0  0
   -1.4046    0.1475    1.0650 C   0  0  0  0  0  0  0  0  0  0  0  0
   -1.9745    1.3135    0.2683 C   0  0  0  0  0  0  0  0  0  0  0  0
   -3.3973    1.0877    0.0325 N   0  0  0  0  0  0  0  0  0  0  0  0
   -4.7024   -0.2834   -0.8517 H   0  0  0  0  0  0  0  0  0  0  0  0
   -3.1883   -2.2482   -0.4681 H   0  0  0  0  0  0  0  0  0  0  0  0
   -1.8888    0.1338    2.0572 H   0  0  0  0  0  0  0  0  0  0  0  0
   -1.8482    2.2430    0.8313 H   0  0  0  0  0  0  0  0  0  0  0  0
   -3.1389   -0.1421   -1.6991 H   0  0  0  0  0  0  0  0  0  0  0  0
   -3.6302   -1.3988    1.0371 H   0  0  0  0  0  0  0  0  0  0  0  0
   -1.4036    1.4009   -0.6747 H   0  0  0  0  0  0  0  0  0  0  0  0
   -0.3279    0.2933    1.1926 H   0  0  0  0  0  0  0  0  0  0  0  0
   -3.8067    1.8749   -0.4570 H   0  0  0  0  0  0  0  0  0  0  0  0
   -1.2268   -1.8767    0.8096 H   0  0  0  0  0  0  0  0  0  0  0  0
  1  6  1  0  0  0  0
  1  2  1  0  0  0  0
  2  3  1  0  0  0  0
  2 12  1  0  0  0  0
  3 16  1  0  0  0  0
  3  4  1  0  0  0  0
  4 14  1  0  0  0  0
  4  9  1  0  0  0  0
  5 10  1  0  0  0  0
  5  4  1  0  0  0  0
  6  5  1  0  0  0  0
  7  1  1  0  0  0  0
  8  2  1  0  0  0  0
 11  1  1  0  0  0  0
 13  5  1  0  0  0  0
 15  6  1  0  0  0  0
 17 22  1  0  0  0  0
 17 18  1  0  0  0  0
 18 19  1  0  0  0  0
 18 28  1  0  0  0  0
 19 32  1  0  0  0  0
 19 20  1  0  0  0  0
 20 30  1  0  0  0  0
 20 25  1  0  0  0  0
 21 26  1  0  0  0  0
 21 20  1  0  0  0  0
 22 21  1  0  0  0  0
 23 17  1  0  0  0  0
 24 18  1  0  0  0  0
 27 17  1  0  0  0  0
 29 21  1  0  0  0  0
 31 22  1  0  0  0  0
M  END
$$$$
