65
4sa1tma2eda-21
S        3.35944900       1.84020900      -0.72187500
O        4.57307500       1.39856100      -1.71896700
O        3.35567500       0.77010200       0.28101600
O        2.12344800       1.78878600      -1.57058900
O        3.64998400       3.18422100      -0.24431400
H        1.73926900       0.40570900      -2.42076300
H        4.78841000       2.15033700      -2.28787900
S       -2.87221600       1.90921000      -0.45349400
O       -1.75372200       2.24244300      -1.54745900
O       -2.87548400       3.10024500       0.42171400
O       -2.29095900       0.74551700       0.30821000
O       -4.12591500       1.58377000      -1.11512600
H       -1.59615100       1.15057400       2.63792000
H       -1.45991200       1.39797800      -1.98114000
S       -0.20845200      -1.38175200       2.73752700
O       -1.37339200      -0.46967300       2.89823400
O        1.02803600      -0.63228800       2.39363700
O       -0.07041200      -2.38122700       3.77665000
O       -0.54651300      -2.23602700       1.38360400
H       -0.19162500      -1.73888400       0.59334400
S        0.18478300      -1.03220600      -2.06653100
O        0.51520600      -0.89206400      -0.60291000
O        0.06433100      -2.42554400      -2.47594600
O       -0.96180000      -0.17500900      -2.42696400
O        1.47787100      -0.47432100      -2.81262400
N        2.99742200      -2.12197700       0.20022600
C        3.87452400      -2.01692900      -0.99771600
C        3.76284700      -1.97060600       1.46710100
C        2.21746800      -3.38885600       0.17850900
H        3.05424500      -1.96236000       2.29479500
H        4.45948400      -2.80748800       1.54984300
H        4.29118700      -1.01964000       1.43199100
H        3.24828500      -2.03721900      -1.89010900
H        4.41525900      -1.07351600      -0.95140000
H        4.56583300      -2.86215200      -0.99331400
H        1.61244000      -3.41227800      -0.72931300
H        2.92013200      -4.22435600       0.19436900
H        1.56906100      -3.42132800       1.05325800
H        2.31874100      -1.34365000       0.14216500
C       -4.06152900      -1.63228500      -1.98933700
N       -5.27671200      -1.26437700      -1.25992900
C       -3.16571900      -2.48965700      -1.09539700
N       -3.09551700      -1.82344900       0.23210400
H       -6.11071600      -1.67434300      -1.65849600
H       -5.38312600      -0.25465500      -1.23843000
H       -4.26927400      -2.18782300      -2.90894300
H       -3.50746300      -0.73401600      -2.27508400
H       -2.15785900      -2.58669100      -1.50264500
H       -3.58836400      -3.48520300      -0.93591500
H       -2.74784100      -0.83655000       0.15504300
H       -2.46721200      -2.29282400       0.89371800
H       -4.05501400      -1.74769600       0.58469600
C       -0.20857900       2.72328100       2.70955500
N       -1.60739000       2.20281000       2.72291700
C        0.35210300       2.79761200       1.29864300
N        0.39722400       1.47051400       0.65293200
H       -2.17550500       2.60409400       1.93678600
H       -2.06428100       2.41543300       3.60773900
H       -0.20727800       3.72618600       3.13940800
H        0.39259800       2.06159500       3.33831400
H        1.37119400       3.18945100       1.33866200
H       -0.24929800       3.45417100       0.66581000
H        0.88903700       0.75799000       1.22448100
H        0.88183400       1.53237100      -0.25947700
H       -0.55041500       1.08945800       0.46931000
65
4sa1tma2eda-32
S       -0.97956300       2.92289400       1.22534100
O       -0.00996100       1.85601600       0.76649900
O       -1.81987200       2.38380200       2.31202000
O       -0.32409900       4.19419000       1.47528600
O       -1.90773900       3.17537600      -0.05944100
H       -2.36518700       2.33439600      -0.32741600
S        0.74976900      -2.62552000       1.09563200
O       -0.02741200      -2.87826600      -0.15099600
O        0.59188300      -1.18992700       1.49910800
O        0.48716000      -3.56999900       2.16356000
O        2.29458200      -2.80133900       0.72664300
H        2.61407700      -2.06625300       0.14768800
S       -3.53213900       0.04224500      -1.81799500
O       -2.63104500      -0.81207600      -2.63155600
O       -2.72243200       0.70825000      -0.72113300
O       -4.36015000       0.97095600      -2.55351400
O       -4.50848100      -0.94263700      -1.03672500
H       -3.96220500      -1.62250300      -0.52569900
S        3.54385800      -0.09941100      -1.87004100
O        3.31644600      -0.65008000      -0.50906500
O        2.79565100      -0.82249800      -2.90867600
O        3.39966600       1.36496500      -1.88862500
O        5.10996100      -0.31276400      -2.19805500
H        5.23871600      -1.22425600      -2.49547000
N        2.35680100       0.77510100       2.30653300
C        2.92771200       1.98427000       1.65458100
C        1.56041700       1.11637300       3.51473700
C        3.41366100      -0.22331400       2.62349500
H        1.14593700       0.19338700       3.92014100
H        2.21728500       1.59305500       4.24474900
H        0.75540400       1.79132100       3.22933600
H        3.38199300       1.68350700       0.70963000
H        2.12288600       2.69755700       1.48319500
H        3.68134100       2.41067800       2.31972000
H        3.96740500      -0.43931700       1.71104700
H        4.07135600       0.19787700       3.38632700
H        2.93581500      -1.13255900       2.98713800
H        1.69850800       0.30910200       1.65695100
C       -2.95932200      -2.64153400       1.83672400
N       -3.02230900      -2.74141900       0.36840100
C       -3.09968800      -1.20232400       2.31939400
N       -2.08399600      -0.30831000       1.71398700
H       -3.41916700      -3.63849500       0.10558700
H       -2.07045400      -2.75328100      -0.00408500
H       -3.78880300      -3.20497000       2.27229000
H       -2.03042100      -3.07817400       2.22470800
H       -2.98575100      -1.16546400       3.40518900
H       -4.07817200      -0.79444500       2.05469900
H       -1.11739300      -0.68420000       1.74012000
H       -2.06260200       0.63642600       2.14880300
H       -2.32028100      -0.10044200       0.71819400
C        0.15774100      -0.00153900      -1.53855700
N        0.01260200      -1.24942200      -2.31466400
C        0.14526300       1.21931700      -2.45041600
N        0.80523500       2.33529600      -1.71940200
H        0.05001200      -2.02892700      -1.62149500
H        0.79012500      -1.35094100      -2.97411400
H       -0.67449000       0.05201500      -0.84438600
H        1.07621700      -0.07054300      -0.95895700
H       -0.87881800       1.50905300      -2.69063300
H        0.70657100       1.04278500      -3.37126100
H        0.50653800       2.29069000      -0.70091300
H        0.55707600       3.24668000      -2.09913500
H        1.83303800       2.19032600      -1.76180600
H       -0.93364900      -1.24536300      -2.74351800
65
4sa1tma2eda-46
S       -0.93465700      -1.33715500       2.87098800
O        0.36597700      -2.01763400       2.78642600
O       -1.45021700      -1.02046100       4.18589800
O       -0.70177600       0.11746100       2.14802900
O       -1.95863500      -1.98933300       1.97900700
H       -1.38514400      -3.11335900       0.93678000
H        0.17065900       0.12472200       1.70056800
S       -0.19067400       1.58909100      -2.23842900
O        0.36650400       0.41016500      -2.92461100
O       -1.30521500       2.27550100      -2.88160100
O       -0.84032500       1.00140500      -0.86193300
O        0.88327300       2.51054000      -1.77011600
H        2.28138400       1.67837000      -1.48252300
H       -0.48735200       0.08580100      -0.71258600
S        2.96887900       1.04633100       0.44697800
O        2.99167100       1.04421400      -1.16365100
O        1.54613400       0.73255700       0.78603600
O        3.86119600      -0.08036900       0.78755400
O        3.37781700       2.36334100       0.91772600
H        0.51486900       2.35069300       0.77213900
S       -0.85838300      -2.65616000      -1.06558900
O       -0.03574100      -3.38804400      -2.04286300
O       -0.99726400      -3.63827100       0.16795600
O       -0.09581600      -1.47373600      -0.51868800
O       -2.19312500      -2.26025300      -1.52355000
N        0.19096100       3.19928300       1.27358500
C       -1.29233500       3.23426000       1.20277800
C        0.66762000       3.06044700       2.67800400
C        0.80727300       4.37886200       0.60680000
H        1.75370000       2.97181200       2.65905100
H        0.35973700       3.94731100       3.23577000
H        0.22164100       2.16396100       3.10883400
H       -1.60414500       3.24834700       0.15980600
H       -1.67731500       2.33656800       1.68560500
H       -1.64222100       4.12806600       1.72382200
H        0.47479000       4.40211800      -0.42947800
H        0.50044600       5.27707100       1.14699900
H        1.88963900       4.25427600       0.63746200
C       -4.67832000       1.00932900      -1.29590000
N       -3.83222100       2.18673100      -1.11479600
C       -4.59922300       0.11415500      -0.05884100
N       -3.18443600      -0.26936500       0.14476200
H       -4.36714100       3.04424900      -1.15166200
H       -3.09239500       2.24393700      -1.81376300
H       -5.72755900       1.27739200      -1.45664600
H       -4.35994500       0.43269700      -2.17276100
H       -5.18924400      -0.79804900      -0.17176200
H       -4.93376200       0.65433900       0.82941700
H       -2.86581600      -0.92484500      -0.59662600
H       -2.96943900      -0.76352300       1.03024600
H       -2.58890100       0.56718400       0.07201000
C        2.77014500      -3.06057000      -0.34892400
N        2.18764400      -2.23202900       0.73108800
C        3.22522900      -2.23125500      -1.54833200
N        2.10282700      -1.65620000      -2.34567300
H        1.30042900      -1.79364900       0.40180400
H        2.84085800      -1.46432200       1.00204000
H        3.64989800      -3.56912900       0.04995500
H        2.03078300      -3.80933100      -0.64249100
H        3.78383000      -2.89357900      -2.21220500
H        3.86864500      -1.40552600      -1.23761500
H        1.31491500      -2.33441100      -2.45718000
H        2.41973000      -1.35556500      -3.26698500
H        1.67771100      -0.80550600      -1.94173300
H        1.90264500      -2.75878800       1.56133100
