1sa_1b_1a.log
 OpenBabel02281910013D
Gaussian kemi/andersx/programs/g09/g09 # opt freq 6-31++g(d,p) wb97xd
 17 14  0  0  0  0  0  0  0  0999 V2000
   -2.1043   -0.2361   -0.0761 S   0  0  0  0  0  0  0  0  0  0  0  0
   -3.4000   -0.8885   -0.1140 O   0  0  0  0  0  0  0  0  0  0  0  0
   -1.1436   -0.6187   -1.1414 O   0  0  0  0  0  0  0  0  0  0  0  0
    2.0766   -0.2389    0.0375 S   0  0  0  0  0  0  0  0  0  0  0  0
    2.1209    0.8963   -0.9343 O   0  0  0  0  0  0  0  0  0  0  0  0
    3.3776   -0.7406    0.4409 O   0  0  0  0  0  0  0  0  0  0  0  0
    1.1580    0.1235    1.1667 O   0  0  0  0  0  0  0  0  0  0  0  0
    0.1460    2.4195   -0.0048 N   0  0  0  0  0  0  0  0  0  0  0  0
    0.8523    1.8966   -0.5952 H   0  0  0  0  0  0  0  0  0  0  0  0
   -1.4309   -0.7188    1.3106 O   0  0  0  0  0  0  0  0  0  0  0  0
   -0.4703   -0.4778    1.3097 H   0  0  0  0  0  0  0  0  0  0  0  0
    0.4694    2.2407    0.9473 H   0  0  0  0  0  0  0  0  0  0  0  0
    0.1298    3.4115   -0.2139 H   0  0  0  0  0  0  0  0  0  0  0  0
    1.3667   -1.4597   -0.7186 O   0  0  0  0  0  0  0  0  0  0  0  0
    0.4310   -1.2037   -0.9359 H   0  0  0  0  0  0  0  0  0  0  0  0
   -2.1935    1.2593    0.0181 O   0  0  0  0  0  0  0  0  0  0  0  0
   -0.8324    1.9722   -0.0843 H   0  0  0  0  0  0  0  0  0  0  0  0
  1 16  1  0  0  0  0
  1 10  1  0  0  0  0
  2  1  2  0  0  0  0
  3  1  2  0  0  0  0
  4  6  2  0  0  0  0
  4  7  1  0  0  0  0
  5  4  2  0  0  0  0
  8 12  1  0  0  0  0
  9  8  1  0  0  0  0
 11 10  1  0  0  0  0
 13  8  1  0  0  0  0
 14  4  1  0  0  0  0
 15 14  1  0  0  0  0
 17  8  1  0  0  0  0
M  RAD  2   7   2  16   2
M  END
$$$$
