3sa_1b_1a.log
 OpenBabel02281910013D
Gaussian kemi/andersx/programs/g09/g09 # opt freq 6-31++g(d,p) wb97xd
 31 26  0  0  0  0  0  0  0  0999 V2000
   -0.1067   -1.1764   -0.3553 N   0  0  0  0  0  0  0  0  0  0  0  0
   -0.9743   -1.7091   -0.2118 H   0  0  0  0  0  0  0  0  0  0  0  0
    0.7089   -1.7434   -0.6140 H   0  0  0  0  0  0  0  0  0  0  0  0
   -0.3161   -0.4599   -1.0801 H   0  0  0  0  0  0  0  0  0  0  0  0
   -1.9469    1.5624   -0.6492 S   0  0  0  0  0  0  0  0  0  0  0  0
   -1.7486    0.8573    0.6532 O   0  0  0  0  0  0  0  0  0  0  0  0
   -1.0528    1.0200   -1.6875 O   0  0  0  0  0  0  0  0  0  0  0  0
    3.5535    3.1611    1.1888 H   0  0  0  0  0  0  0  0  0  0  0  0
    2.1099    1.7519    0.4960 S   0  0  0  0  0  0  0  0  0  0  0  0
    3.2548    2.3020    1.5164 O   0  0  0  0  0  0  0  0  0  0  0  0
    2.7950    1.4997   -0.7886 O   0  0  0  0  0  0  0  0  0  0  0  0
    1.6982    0.5004    1.1729 O   0  0  0  0  0  0  0  0  0  0  0  0
    1.0961    2.8013    0.4333 O   0  0  0  0  0  0  0  0  0  0  0  0
    0.1202   -0.6340    0.4850 H   0  0  0  0  0  0  0  0  0  0  0  0
   -3.3668    1.6376   -1.0308 O   0  0  0  0  0  0  0  0  0  0  0  0
   -4.2712    0.2720   -0.8141 H   0  0  0  0  0  0  0  0  0  0  0  0
    3.7822   -1.8599   -0.2968 S   0  0  0  0  0  0  0  0  0  0  0  0
    4.4072   -0.5737   -0.9597 O   0  0  0  0  0  0  0  0  0  0  0  0
    3.5212   -1.4300    1.2050 O   0  0  0  0  0  0  0  0  0  0  0  0
    4.7994   -2.8735   -0.2810 O   0  0  0  0  0  0  0  0  0  0  0  0
    2.4965   -2.1408   -0.9282 O   0  0  0  0  0  0  0  0  0  0  0  0
    3.7694    0.2026   -0.9554 H   0  0  0  0  0  0  0  0  0  0  0  0
    2.8275   -0.7119    1.2581 H   0  0  0  0  0  0  0  0  0  0  0  0
   -4.0564   -1.5328    0.3649 S   0  0  0  0  0  0  0  0  0  0  0  0
   -3.6210   -0.6467    1.5947 O   0  0  0  0  0  0  0  0  0  0  0  0
   -5.0128   -2.5018    0.8275 O   0  0  0  0  0  0  0  0  0  0  0  0
   -4.8286   -0.5282   -0.5760 O   0  0  0  0  0  0  0  0  0  0  0  0
   -2.8499   -1.9930   -0.3210 O   0  0  0  0  0  0  0  0  0  0  0  0
   -2.8886   -0.0096    1.3088 H   0  0  0  0  0  0  0  0  0  0  0  0
   -1.5171    3.0766   -0.4033 O   0  0  0  0  0  0  0  0  0  0  0  0
   -0.5702    3.0632   -0.1319 H   0  0  0  0  0  0  0  0  0  0  0  0
  1  2  1  0  0  0  0
  1 14  1  0  0  0  0
  3  1  1  0  0  0  0
  4  1  1  0  0  0  0
  5 30  1  0  0  0  0
  5  6  1  0  0  0  0
  7  5  2  0  0  0  0
  8 10  1  0  0  0  0
  9 12  1  0  0  0  0
  9 10  1  0  0  0  0
 11  9  2  0  0  0  0
 13  9  2  0  0  0  0
 15  5  2  0  0  0  0
 16 27  1  0  0  0  0
 17 20  2  0  0  0  0
 17 19  1  0  0  0  0
 18 22  1  0  0  0  0
 18 17  1  0  0  0  0
 19 23  1  0  0  0  0
 21 17  2  0  0  0  0
 24 26  2  0  0  0  0
 24 25  1  0  0  0  0
 27 24  1  0  0  0  0
 28 24  2  0  0  0  0
 29 25  1  0  0  0  0
 30 31  1  0  0  0  0
M  RAD  2   6   2  12   2
M  END
$$$$
