20
1sa1tma-114
S       -1.51380500      -0.13582300       0.06376300
O       -0.87782200      -0.49079900      -1.21465800
O       -2.67864500      -0.91269800       0.45467400
O       -0.47544500       0.03113900       1.13123200
O       -2.04548000       1.40844000      -0.11205600
H       -2.98351100       1.35802700      -0.33653200
H        0.88537500       0.00585600       0.50593100
N        1.87537500       0.01146600       0.05792200
C        2.08343400      -1.32633300      -0.54536200
C        1.86263400       1.07940500      -0.97066300
C        2.83656300       0.29414600       1.14446100
H        1.62941900       2.02775700      -0.48503400
H        2.84173200       1.13239300      -1.45398300
H        1.07818000       0.84221800      -1.68963200
H        2.02705600      -2.07745800       0.24339100
H        1.28070800      -1.49735500      -1.26298600
H        3.06354400      -1.36021300      -1.02848200
H        2.75108500      -0.48430700       1.90328600
H        3.85304800       0.31603000       0.74322900
H        2.58996700       1.25799400       1.59099800
20
1sa1tma-153
S       -1.51236200      -0.13037100      -0.02375000
O       -0.46942400      -0.07169300      -1.10457600
O       -2.58149000      -1.07467100      -0.30535900
O       -2.20876600       1.35276600      -0.05705300
O       -0.87239800      -0.17209300       1.29511600
H       -2.97965200       1.29019500      -0.63549300
H        0.88882600       0.00089600      -0.50045300
N        1.88675400       0.01178600      -0.06658200
C        2.85179400       0.12817100      -1.17970400
C        1.93385400       1.18211300       0.84162500
C        2.03303300      -1.26373100       0.67516300
H        1.15730200       1.05642200       1.59606100
H        2.92445600       1.25073900       1.29909700
H        1.72511300       2.08207900       0.26216200
H        2.70741900      -0.71124200      -1.86047200
H        2.66310800       1.05975500      -1.71411500
H        3.87132100       0.12132000      -0.78682400
H        1.94581900      -2.09044400      -0.03051600
H        3.00873500      -1.28847300       1.16705100
H        1.22261000      -1.32160200       1.40204200
20
1sa1tma-7
S       -1.55909000      -0.15121000      -0.11098100
O       -2.90580300      -0.00794300      -0.63110000
O       -1.34564300      -1.12617200       0.95894500
O       -0.48701700      -0.21558500      -1.15486000
O       -1.16463200       1.32379500       0.57186400
H       -1.91108700       1.59599500       1.12106100
N        1.82938500      -0.02032200      -0.05695700
C        2.78155200      -0.86548800      -0.80759900
C        2.12311600       1.42476000      -0.19639200
C        1.72675600      -0.42465900       1.36677200
H        1.31246200       1.98091100       0.27561700
H        3.08151400       1.65385100       0.27684800
H        2.15622500       1.67578900      -1.25698600
H        2.47922600      -1.90824900      -0.70740900
H        2.75114800      -0.58242600      -1.86029500
H        3.79093900      -0.72835500      -0.41097700
H        1.37914800      -1.45602200       1.41539400
H        2.70480900      -0.31643000       1.84352300
H        0.98420100       0.20771800       1.85224100
H        0.84737200      -0.16160600      -0.51009900
