41
2msa1dma1tma-01
S        2.73502900      -0.68166300       0.20886100
O        2.20154700      -1.95235100       0.76019700
O        3.09761000       0.33066400       1.21520400
O        1.81186600      -0.12091900      -0.83776400
C        4.23088200      -1.11923400      -0.66166000
H        4.92951300      -1.53976900       0.06213100
H        3.98231900      -1.85358000      -1.42780600
H        4.64381500      -0.21602400      -1.11141200
S       -2.98556500       0.22564100      -0.07738200
O       -3.29386800      -1.06413300      -0.72659100
O       -3.01633400       1.40878500      -0.95239000
O       -1.68931100       0.13881500       0.69291600
C       -4.24381400       0.48092900       1.16862800
H       -5.20780400       0.53753000       0.66213700
H       -4.22423600      -0.35975400       1.86261000
H       -4.03255200       1.41560500       1.68885900
N       -0.45598200      -2.17746700      -0.00773000
C       -0.46304900      -2.33627300      -1.47906700
C       -1.24661300      -3.20017800       0.70548500
H        0.52819600      -2.16801400       0.33053300
H       -1.48788800      -2.21432500      -1.83142400
H        0.18304300      -1.56414800      -1.89642900
H       -0.07422600      -3.32500400      -1.73137400
H       -2.28458100      -3.11392700       0.38053100
H       -0.84879800      -4.19112300       0.47915100
H       -1.17468800      -3.01133800       1.77690500
H       -0.86363400      -1.23832900       0.23321300
N        0.92853200       2.32826400      -0.10973800
C        2.21367800       3.05276800      -0.25869500
H        2.94112400       2.59599000       0.41307700
H        2.55286000       2.95438500      -1.29071100
H        2.05908200       4.10623400      -0.01462100
C       -0.10189400       2.82098300      -1.05900400
H        0.27611700       2.69300800      -2.07439500
H       -1.02710100       2.25359500      -0.93265000
H       -0.28290000       3.88035100      -0.86138700
C        0.45168000       2.35016900       1.29857600
H       -0.46075600       1.75365100       1.35291600
H        1.23072700       1.90900400       1.92172700
H        0.26341700       3.38771500       1.58560900
H        1.14237600       1.32716400      -0.35671400
41
2msa1dma1tma-03
S       -3.01961700       0.06015700       0.15998800
O       -3.16033900       1.15069500       1.13721800
O       -2.87695600      -1.29534600       0.77828400
O       -1.93852300       0.29775500      -0.83775900
C       -4.55090000      -0.00448100      -0.76033800
H       -5.35843800      -0.20928400      -0.05698400
H       -4.69883600       0.96276000      -1.24140800
H       -4.47780400      -0.79812000      -1.50424900
S        2.74063100      -0.52215600      -0.12981200
O        3.12752600       0.55582800      -1.05539700
O        2.58875700      -1.86297700      -0.71254800
O        1.49927400      -0.13495900       0.65727200
C        4.03244400      -0.64121700       1.09940600
H        4.95151000      -0.92901100       0.58809600
H        4.15156500       0.33081800       1.57894200
H        3.74672600      -1.39831800       1.82968900
N       -0.40185500      -2.15922600       0.12666300
C       -0.46689500      -2.49867100      -1.31224100
C        0.10761200      -3.25043200       0.97886600
H        0.21867100      -1.33683100       0.25316400
H       -1.11080700      -3.37136700      -1.43696200
H       -0.89781600      -1.64060300      -1.82799000
H        0.54306300      -2.70040600      -1.66966900
H       -0.55320200      -4.11426200       0.88963800
H        1.11813700      -3.50285300       0.65438500
H        0.12188600      -2.90698100       2.01370200
H       -1.36055800      -1.85834900       0.44193400
N        0.69309300       2.38876100       0.03296000
C        1.94267000       3.14865900       0.28067600
H        2.20725700       3.04876700       1.33446100
H        2.73116700       2.72371600      -0.34057400
H        1.77154200       4.20027800       0.03981400
C        0.32103300       2.40388500      -1.40719900
H        1.14669100       1.96384100      -1.96816400
H       -0.58670400       1.80953100      -1.52296100
H        0.15290200       3.43946200      -1.71311600
C       -0.41625700       2.85653400       0.90300000
H       -1.30795400       2.25286600       0.72751500
H       -0.10919500       2.75143000       1.94441700
H       -0.61627200       3.90717300       0.67920200
H        0.90542700       1.38733400       0.27737100
41
2msa1dma1tma-02
S       -2.86201600       0.33483900      -0.00416100
O       -2.78156300       1.72480800      -0.48795800
O       -2.07215000       0.07800300       1.22573900
O       -2.53732000      -0.67773800      -1.06076000
C       -4.57696900       0.04850600       0.41178700
H       -5.17295900       0.18879900      -0.49025400
H       -4.67883200      -0.97039400       0.78668300
H       -4.86482800       0.76913700       1.17761300
S        2.61089600      -0.64964200       0.21501100
O        1.93424100      -1.79847400       0.86672100
O        3.09646200       0.38862300       1.13827900
O        1.74972600      -0.07992800      -0.87798300
C        4.04391800      -1.32704300      -0.60759200
H        4.68774200      -1.77152400       0.15176100
H        3.71175200      -2.08195600      -1.32050200
H        4.56086900      -0.51545300      -1.12019200
N       -0.56811300      -2.27760700      -0.16566600
C       -1.25285500      -3.07341400       0.87210000
C       -0.11796900      -3.05155800      -1.33727600
H       -1.23511700      -1.53367300      -0.49515000
H       -0.55629600      -3.80750100       1.28065800
H       -1.58537400      -2.38418900       1.64843100
H       -2.11476400      -3.57277600       0.42603100
H        0.56653900      -3.83588900      -1.01004400
H       -0.98632500      -3.48570400      -1.83530800
H        0.39801900      -2.36966700      -2.01348400
H        0.27148900      -1.84246400       0.26197300
N        0.95690800       2.42051600      -0.15957800
C        0.36287900       2.33379900       1.20333900
H       -0.53269400       1.70956200       1.16811200
H        1.10583100       1.88283000       1.86231300
H        0.10892700       3.34284500       1.53638500
C        2.24734200       3.15109000      -0.14221600
H        2.93106800       2.61615200       0.51722600
H        2.65239500       3.17304700      -1.15495900
H        2.07249400       4.16963400       0.21169800
C        0.00985300       2.99173400      -1.15140200
H        0.44842400       2.88749900      -2.14497900
H       -0.94409300       2.46226800      -1.08874600
H       -0.14312700       4.04873600      -0.92035000
H        1.18286500       1.43614500      -0.45654900
