29
2sa2am1ma-34
S       -1.65780800      -1.43326200      -0.15117200
O       -0.64422300      -2.50033400      -0.07303800
O       -3.04103400      -1.83651600      -0.26593800
O       -1.58374600      -0.60441500       1.23738500
O       -1.24735300      -0.40941000      -1.19205500
H        0.34388400       0.03701200      -1.21278700
H       -0.67716400      -0.21267200       1.33748600
S        1.40546400       1.28202800       0.21264400
O        1.27941900       0.37075600      -1.11238200
O        0.89436300       0.40996000       1.32486200
O        2.82970900       1.55818700       0.30801800
O        0.52569700       2.45398200       0.02176600
H       -1.11166400       2.35790500      -0.32901900
N        3.90147400      -1.09901800      -0.85089800
H        3.89673800      -0.14459700      -0.48442900
H        3.50754800      -1.03558000      -1.78535500
H        4.86475800      -1.40558700      -0.93696800
N        1.92394700      -2.10495800       0.84658200
H        1.68529500      -1.20789500       1.31128200
H        1.04476600      -2.39063900       0.36734200
H        2.71140000      -1.88663800       0.16297100
H        2.20031900      -2.80884400       1.52430300
N       -2.06723000       2.08974300      -0.67250100
H       -1.93426900       1.09395600      -0.99005400
H       -2.29395200       2.66960100      -1.47735800
C       -3.09783800       2.17629700       0.39055200
H       -2.81626200       1.48482200       1.18369100
H       -3.14479700       3.19683800       0.76958900
H       -4.06206900       1.87622600      -0.01877800
29
2sa2am1ma-3
S       -1.53921200      -1.60776600      -0.11764700
O       -1.48584600      -0.83886000       1.31540800
O       -0.42728000      -2.57354000      -0.12876400
O       -1.27960300      -0.49241300      -1.10809100
O       -2.88235800      -2.13629700      -0.19319300
H        0.26161400       0.11268000      -1.16948500
H       -0.59267200      -0.42019200       1.42186200
S        1.30030900       1.32740100       0.29960400
O        2.69891900       1.72202900       0.34072600
O        0.31180600       2.42512900       0.24907100
O        1.17450500       0.50735500      -1.08239300
O        0.93146700       0.33454000       1.36729800
N        3.92039700      -0.71479300      -1.10900600
H        3.86315200       0.20426400      -0.66498800
H        3.44915300      -0.61578200      -2.00378000
H        4.89629000      -0.92529600      -1.28943500
N        2.16551200      -2.01957100       0.62615100
H        2.54900300      -2.74512200       1.22419900
H        2.88142500      -1.67658600      -0.08528500
H        1.28444200      -2.34763500       0.18077200
H        1.87809100      -1.18876500       1.17809400
C       -3.19480100       2.72447200      -0.55243900
N       -2.29760000       1.72301200       0.05866400
H       -1.33731000       2.10377800       0.24973600
H       -2.66286600       1.33023800       0.92683800
H       -2.73071700       3.08927500      -1.46799100
H       -4.15291700       2.26054000      -0.78516500
H       -3.33849700       3.55532800       0.13781300
H       -2.10798900       0.89820500      -0.56103300
29
2sa2am1ma-39
S       -1.74545800       1.06701100      -0.06498800
O       -1.11290600       0.57526000       1.19684500
O       -3.20119900       1.04419100      -0.06595600
O       -1.10389800       2.33957000      -0.47181800
O       -1.35626000      -0.03175700      -1.18550200
H       -0.37129200      -0.08399100      -1.26952500
H        0.36885800       2.34174800       0.29014700
S        1.92290000      -1.05973100      -0.10700200
O        1.33579200      -0.20317700      -1.16549400
O        2.22657200      -0.31369300       1.12152100
O        1.18838600      -2.32368200       0.08075200
O        3.39309900      -1.48577400      -0.64288600
H        3.27934900      -2.10906600      -1.37330200
N       -3.56392900      -1.98604300      -0.45798300
H       -3.78202000      -0.99946100      -0.29755500
H       -4.42970700      -2.51405300      -0.42873900
H       -3.20178400      -2.03032400      -1.40648400
N       -1.34439300      -2.12031800       1.25157200
H       -2.18901500      -2.25087500       0.62059400
H       -1.44132100      -2.64053500       2.11783700
H       -0.45995300      -2.37519100       0.77538200
H       -1.27994200      -1.08887600       1.43348000
N        1.31508600       2.29551000       0.75454600
H        1.50062800       1.30173400       1.00487200
H        1.26552100       2.83429300       1.61624100
C        2.37241200       2.78311000      -0.15967500
H        2.35791400       2.14405100      -1.04195000
H        2.16289400       3.81534100      -0.43935700
H        3.34229400       2.70851500       0.33160800
