39
1msa1nta1tma1eda-111
S       -1.87682100       1.69327500      -0.09958400
O       -0.77296900       2.59030100       0.33082500
O       -2.73961200       1.21258500       0.99471800
O       -1.35655900       0.56797700      -0.94421500
H       -1.58180100      -0.95314900      -0.25157900
C       -2.90469700       2.67723900      -1.17790100
H       -3.28585500       3.52040300      -0.60138600
H       -2.29649700       3.02543200      -2.01282700
H       -3.72576500       2.05383100      -1.53308000
N        2.01169600      -1.99810100      -0.26450700
O        2.97310000      -1.43953600      -0.82143100
O        1.81456400      -3.21308400      -0.35349100
O        1.19437000      -1.28495900       0.41654600
H        1.46634800       0.32778000       0.09918900
N       -2.00157300      -1.83100100       0.15169900
C       -3.46518000      -1.70212400      -0.05712400
H       -3.80115100      -0.79347400       0.44342400
H       -3.65856100      -1.62760200      -1.12791800
H       -3.96072300      -2.58476600       0.35334500
C       -1.44266400      -2.99928200      -0.57375300
H       -1.62330400      -2.86309800      -1.64083600
H       -0.37055500      -3.06862000      -0.38193500
H       -1.94757700      -3.90267600      -0.22302400
C       -1.66171900      -1.85769300       1.59895500
H       -0.57699000      -1.91982900       1.68534100
H       -2.03140000      -0.93319000       2.04477900
H       -2.13949000      -2.72845700       2.05446900
H        2.71169800       2.93665600       0.82270500
H        2.20819800       1.66102400       1.95428200
H        4.70749700       1.64857300       1.39328600
H        3.88334900       0.11905900       1.06813200
H        5.26104000       1.64363500      -0.79663500
H        4.31378000       0.32414900      -1.08553300
H        0.74927200       1.86598700       0.00443600
H        2.08702500       1.46109200      -0.96594300
C        2.61968400       1.85661200       0.96192200
C        3.96605400       1.16349200       0.75079800
N        1.65703900       1.35567200      -0.04314500
N        4.34263600       1.24472900      -0.65981100
39
1msa1nta1tma1eda-123
S        0.14429800       2.48714300      -0.07512300
O        1.49206700       2.73108800       0.47174600
O       -0.91525000       2.38762400       0.97942400
O        0.08196500       1.33085600      -1.00396200
H        1.79442900      -1.20164200       0.40827300
C       -0.28094600       3.93974200      -1.02669800
H       -0.27923500       4.79814900      -0.35452500
H        0.46857000       4.06379500      -1.80887900
H       -1.26950400       3.79294200      -1.46258000
N        0.03078200      -2.61647800      -0.31135800
O       -1.12953500      -2.95816100      -0.54381000
O        1.00076400      -3.04917900      -0.94478900
O        0.24497300      -1.76307400       0.63328300
H       -1.23397200      -0.78388900       0.80594000
N        2.79050400      -0.87709000       0.27352400
C        2.86709600      -0.29782100      -1.09429200
H        2.65395700      -1.09191500      -1.81011800
H        2.11058600       0.48525000      -1.17723300
H        3.87040400       0.10594600      -1.24935300
C        3.08093200       0.13787000       1.31927400
H        2.45864000       1.02095800       1.15085000
H        2.87419100      -0.30282700       2.29574900
H        4.13622600       0.41405100       1.25318500
C        3.65118400      -2.07465000       0.41592900
H        3.53423300      -2.47456500       1.42408500
H        3.32543400      -2.82029900      -0.30768500
H        4.69167300      -1.78843700       0.24582100
H       -3.22083300       0.91607500      -0.54140400
H       -2.06191200      -0.20884200      -1.26490600
H       -4.41817400      -1.13034700      -1.30664000
H       -3.31533600      -2.13626900      -0.35599100
H       -5.32784900      -0.30849800       0.74133000
H       -5.05715700      -1.88073000       1.10697900
H       -1.55094300       0.87260600       0.97917400
H       -2.65416900      -0.29006000       1.57911800
C       -2.76311900      -0.07257900      -0.44209600
C       -3.82072900      -1.16846200      -0.38641500
N       -1.99310600      -0.07272500       0.82572300
N       -4.60595300      -1.01421700       0.84088700
39
1msa1nta1tma1eda-167
S        2.53131700       0.58679700      -0.06462900
O        1.96731300       0.55759800       1.30521900
O        1.81170700       1.49929900      -0.97894300
O        2.69301000      -0.78381000      -0.64829400
H        1.30198800      -1.51994100      -1.12269500
C        4.19483200       1.21787700       0.09069700
H        4.75773200       0.54827700       0.74113000
H        4.64136200       1.25836400      -0.90288000
H        4.13417000       2.21506800       0.52739500
N       -2.64626100      -1.08744300      -0.31122700
O       -3.28355700      -0.51235200       0.58133300
O       -2.69269900      -2.30376800      -0.48949200
O       -1.88708200      -0.38016700      -1.07875700
H       -1.79869100       1.11241700      -0.42442200
N       -1.74164000       2.08457800      -0.00136700
C       -0.95655800       2.93506200      -0.93121300
H        0.04205600       2.50511100      -1.03860700
H       -1.46786700       2.95969500      -1.89466900
H       -0.89414800       3.94452100      -0.51685000
C       -3.13135000       2.57238800       0.15471000
H       -3.60084200       2.61857800      -0.82864100
H       -3.67740200       1.86799100       0.78019800
H       -3.11044300       3.56726700       0.60607000
C       -1.06157400       1.93387500       1.31071600
H       -1.63948900       1.22762900       1.90775600
H       -0.05044100       1.55237000       1.15175200
H       -1.02231300       2.90938400       1.80205400
H       -0.63762800      -3.63132800      -0.33341900
H        1.11152800      -3.92295100      -0.57544000
H        0.54232300      -3.48386300       1.83778200
H        1.69655800      -2.32805900       1.16277500
H       -0.97566400      -1.74255600       2.03888600
H        0.34668400      -0.74524900       1.80202700
H        0.30404700      -2.37818700      -2.19863600
H       -0.39093200      -1.40212400      -1.05828900
C        0.35873900      -3.19041200      -0.27293400
C        0.65313500      -2.65391200       1.12854600
N        0.39852500      -2.05698500      -1.23838500
N       -0.20013000      -1.51512800       1.43085400
