30
2nta1ma1tma-3
N        2.07290700      -1.67992600      -0.12777500
H        1.29942400      -2.35921200      -0.28743900
C        2.53061700      -1.70984500       1.27807200
H        2.97557500      -2.67923800       1.50435600
H        3.25521800      -0.90875700       1.42317200
H        1.65560800      -1.54748500       1.90604500
H        2.83769000      -1.85175300      -0.77584000
N       -1.85620000       1.11514700       0.26801000
C       -1.93861200       1.38235600      -1.19217900
H       -0.93190200       1.59846200      -1.54804000
H       -2.32758600       0.48757300      -1.67861100
H       -2.60483800       2.23244100      -1.35627000
C       -3.16997200       0.70730200       0.82557200
H       -3.48287300      -0.20592600       0.31978700
H       -3.04931900       0.50969400       1.89102800
H       -3.89028600       1.51365800       0.67149400
C       -1.27158800       2.26653800       1.00148100
H       -1.11763800       1.97556900       2.04144100
H       -0.31915800       2.53533700       0.54114500
H       -1.97276100       3.10305300       0.95120000
N        1.99821800       1.59192200      -0.37375700
O        3.15387900       1.15883100      -0.25278400
O        1.72262500       2.79364300      -0.32604000
O        1.04338700       0.74685300      -0.54440800
H        1.67653700      -0.71381200      -0.34348100
N       -1.06332700      -2.09246300      -0.21809700
O       -0.65695000      -1.31729400       0.70461300
O       -0.31805400      -3.03102100      -0.57783600
O       -2.16202200      -1.90001900      -0.75007900
H       -1.23045800       0.28158900       0.39594400
30
2nta1ma1tma-1
N       -2.49879000      -0.63880400      -0.01116100
H       -2.46188500      -0.93010500      -0.98627300
C       -3.53859400      -1.37039100       0.73625500
H       -3.30908400      -2.43562700       0.71001500
H       -3.53877100      -1.01806400       1.76749200
H       -4.51499700      -1.18216700       0.28944900
H       -1.54511900      -0.84798500       0.36046100
N        2.19147800       0.40959000       0.24827900
C        3.26090200      -0.41068500       0.86934200
H        3.04177700      -0.52707500       1.93119900
H        3.26025300      -1.38885300       0.38997300
H        4.21988800       0.09497400       0.73718200
C        2.40782400       0.57825700      -1.21320100
H        2.46058900      -0.41240200      -1.66508700
H        1.55881700       1.13247200      -1.61284500
H        3.34213200       1.12278000      -1.36823800
C        2.03290000       1.71985800       0.93077300
H        1.24328800       2.29079200       0.43881300
H        1.77021200       1.53992200       1.97404400
H        2.98248400       2.25743400       0.87613300
N        0.26048100      -2.28832700      -0.15864600
O        0.09806100      -1.31877500       0.67880600
O       -0.72879100      -2.94764200      -0.49103200
O        1.39355300      -2.50405100      -0.60251300
H        1.30376600      -0.14144900       0.36934100
N       -1.21762100       2.23123200      -0.30590400
O       -0.60780900       1.26683200      -0.84288300
O       -0.65320600       3.31091600      -0.11838700
O       -2.41875500       2.05946600       0.05575900
H       -2.60481700       0.41330400       0.00335500
30
2nta1ma1tma-6
N        2.15023900      -1.52039700       0.55501000
H        2.53296200      -2.10970200       1.29014300
C        2.37988300      -2.10051000      -0.78829000
H        1.85184800      -3.05000300      -0.86597700
H        1.98769700      -1.38876200      -1.51389700
H        3.45034600      -2.23380400      -0.94620100
H        1.12441900      -1.40793500       0.72546500
N       -1.85861500       1.16303100       0.03319700
C       -3.21583000       0.87051300       0.55713900
H       -3.54087800      -0.08645200       0.15069400
H       -3.16220900       0.80265000       1.64429200
H       -3.89265700       1.67614300       0.26414800
C       -1.29163300       2.39491400       0.64002200
H       -1.19478900       2.24078400       1.71547200
H       -0.31214800       2.59767200       0.20480400
H       -1.97425200       3.22541200       0.44474900
C       -1.84153000       1.22589400      -1.45132100
H       -0.80858000       1.37902500      -1.76400800
H       -2.21957800       0.27818100      -1.83574400
H       -2.47590500       2.05357400      -1.77723300
N        2.02892800       1.60351700      -0.07604100
O        1.19797800       0.88529300      -0.69390000
O        1.89946000       2.82797500      -0.03184700
O        2.99327100       1.03557400       0.51853100
H        2.56784800      -0.54602100       0.59908900
N       -1.10512200      -2.11581100       0.17109700
O       -0.58133500      -1.12212700       0.81025100
O       -0.49099700      -3.18368600       0.14885800
O       -2.18937900      -1.94645700      -0.39835900
H       -1.25946500       0.33941000       0.30778900
