26
1sa1fa2ma-1
S       -1.03908200      -1.27561700       0.29512900
O       -1.13146300      -0.36040900       1.45292700
O       -2.31458800      -1.71982100      -0.24324200
O       -0.07460500      -0.74840600      -0.71172600
O       -0.26486500      -2.60987900       0.82838400
H       -0.93679600      -3.24087000       1.11827400
H        4.30125800      -0.76087700      -0.82308200
H        1.47243500      -1.17302200      -0.90552300
C        3.25524200      -0.49521000      -0.62453500
O        2.43368200      -1.39500800      -1.08864900
O        2.95873100       0.53506800      -0.03769200
N        0.53162000       1.73441300       0.74015700
H        1.40345700       1.26229700       0.43830500
H       -0.00443400       1.99219000      -0.13657900
C        0.80177000       2.89278900       1.60848700
H       -0.14176200       3.35943600       1.89304600
H        1.32918500       2.56477400       2.50431500
H        1.41783000       3.61340100       1.07007000
H       -0.05281800       1.00767400       1.20158200
N       -1.10422200       1.97026100      -1.52585900
H       -0.98547900       2.55563400      -2.34598900
C       -2.49137900       2.02611600      -1.04231300
H       -3.22658900       1.69538500      -1.78436800
H       -2.58805500       1.38229800      -0.16426400
H       -2.73000900       3.05095200      -0.74492500
H       -0.87362600       1.01335800      -1.79285000
26
1sa1fa2ma-2
S       -1.65091300       0.59799500       0.34953700
O       -1.26458600       0.04211900       1.65587400
O       -2.51585100       1.76323500       0.34157800
O       -0.47350700       0.68108000      -0.56303600
O       -2.54117100      -0.62707900      -0.31282700
H       -3.20689400      -0.21972700      -0.88238400
H        3.32158900       2.78242400      -0.73372100
H        0.62590200       1.82855500      -0.73509600
C        2.52907600       2.05059000      -0.53217900
O        1.36122700       2.49081500      -0.90971400
O        2.77174100       0.96982800      -0.01511700
N        1.18921900      -1.10491100       1.04629600
H        1.70690400      -0.33765900       0.58052600
H        0.35537300      -0.67206100       1.48976600
C        2.03704300      -1.83116000       2.00676700
H        1.45138400      -2.61558300       2.48718900
H        2.88284000      -2.27584400       1.48172700
H        2.40726800      -1.13907600       2.76322200
H        0.78601500      -1.73642800       0.29600000
N       -0.13400100      -2.53666000      -0.98597200
H       -0.21585500      -3.54810700      -1.00411800
C        0.38285000      -2.03200100      -2.26529100
H       -0.22567700      -2.32631900      -3.12909600
H        0.40952400      -0.94151100      -2.21522700
H        1.40135400      -2.39941000      -2.41863700
H       -1.06827500      -2.16073500      -0.82484900
26
1sa1fa2ma-4
S        0.85309400      -1.36346300       0.22145900
O       -0.58883000      -1.46757000       0.57538200
O        1.10994500      -1.13534500      -1.19546900
O        1.53494400      -0.43600800       1.15032700
O        1.48600600      -2.83016700       0.49620600
H        1.39356100      -3.02818700       1.43790900
H       -4.28993300      -0.05572300      -1.17634000
H       -1.89076000      -1.36149700      -0.32554500
C       -3.31150300      -0.11018500      -0.68208500
O       -2.77798800      -1.29279600      -0.79669000
O       -2.83164900       0.85851600      -0.11008500
N       -0.31885000       1.65914300       0.81701100
H        0.19989900       1.84413400      -0.10147600
H       -1.21237500       1.19205600       0.57324100
C       -0.55194300       2.89752700       1.58019200
H       -1.05066600       2.66582700       2.52136200
H        0.40325400       3.38336000       1.78206400
H       -1.18435400       3.56232700       0.99171000
H        0.27787000       0.97642100       1.31049600
N        1.25361300       1.83504100      -1.46292700
H        1.15739500       0.85920700      -1.75161900
C        2.62397300       2.04923900      -0.97670900
H        3.38745300       1.88616500      -1.74609000
H        2.72657600       3.07025400      -0.59685700
H        2.80899700       1.35013900      -0.15735500
H        1.05765400       2.41912400      -2.26918900
