55
3sa3ma1tma-43
S        0.23396000      -2.35750800      -0.72317700
O        0.05073100      -2.66291200       0.73139200
O       -0.87158900      -2.96062200      -1.52370400
O        0.16137100      -0.82685500      -0.87361400
O        1.56312300      -2.81154300      -1.21949300
H        1.54572600      -0.02341600      -0.96889400
H       -1.28880600      -0.23539000      -0.89855000
S        2.67133600       1.23497900       0.40651500
O        2.40987300       0.49217000      -1.00244700
O        3.86382000       2.03160600       0.18146000
O        1.43215200       1.96971100       0.72191600
O        2.86534400       0.10948200       1.39231400
H        3.47182500      -1.28457200       0.67446900
S       -2.67945200       0.65137800       0.54271100
O       -2.21593500       0.17804100      -0.92589500
O       -2.74668300      -0.58033800       1.37230100
O       -1.57513500       1.53216100       1.03318400
O       -3.94373300       1.33235800       0.32099500
H       -2.18415900      -2.96654400      -0.66386700
N       -3.07380900      -2.86454300      -0.07969500
H       -2.91096300      -2.06460700       0.57408600
H       -3.19874600      -3.71334800       0.46611400
C       -4.23601200      -2.56615900      -0.94441600
H       -4.01284200      -1.64848500      -1.48830200
H       -4.38847500      -3.38567100      -1.64676700
H       -5.12549700      -2.41796500      -0.33184300
N        3.74361200      -2.10908200       0.08463400
H        2.85400500      -2.42674400      -0.41248100
H        4.06010200      -2.86084400       0.69203000
C        4.77745100      -1.71554700      -0.90018800
H        4.36288600      -0.90857000      -1.50312400
H        5.66689800      -1.36155100      -0.37867000
H        5.01941400      -2.57006900      -1.53209200
C       -0.29895100      -0.43812500       3.60386700
N        0.20211100      -0.33195200       2.22212800
H        1.21801800      -0.15268600       2.16027400
H        0.02749500      -1.20670700       1.67908900
H       -0.06599200       0.47994500       4.14350400
H       -1.37875400      -0.57995900       3.56361100
H        0.17442700      -1.28731300       4.09760100
H       -0.26961800       0.44590000       1.72817100
N       -0.65481400       3.22338400      -0.93496200
C        0.10329500       4.39367900      -0.42297300
C        0.02399900       2.58519300      -2.09228700
C       -2.05887500       3.58343500      -1.26430400
H       -0.52513900       1.68155900      -2.35717000
H        0.02481600       3.28922200      -2.92755700
H        1.04077700       2.32293800      -1.80698000
H       -0.42923900       4.79894600       0.43788700
H        1.09016000       4.05207400      -0.11510800
H        0.16695300       5.14381600      -1.21436200
H       -2.55975500       3.91565900      -0.35569100
H       -2.04995200       4.37649200      -2.01504900
H       -2.57136100       2.70026000      -1.64379900
H       -0.70956400       2.52048400      -0.16353600
55
3sa3ma1tma-6
S        3.90253900      -0.39638000       0.74786200
O        4.14454200       0.98096700       1.22150400
O        2.91292300      -1.12777600       1.56094700
O        3.67969600      -0.49260700      -0.70487900
O        5.30456600      -1.19398000       0.94295000
H        5.50751800      -1.21927300       1.88783400
S       -2.06973300      -2.19534800      -0.45227100
O       -2.59662200      -1.28142800       0.58846900
O       -0.68904900      -2.65095900      -0.06666700
O       -2.94831500      -3.27015300      -0.86852700
O       -1.84250700      -1.28445300      -1.76652900
H       -1.76187500      -0.31084700      -1.53828400
S       -0.58527300       1.73371200      -0.32430300
O       -1.65804700       1.29456100      -1.28460600
O        0.62991400       0.82208800      -0.52716300
O       -0.17424000       3.13382800      -0.53574200
O       -1.09037800       1.49478500       1.07630700
C        3.39804400       2.66105600      -1.80608700
N        2.66099100       2.53054800      -0.53371200
H        3.28674300       2.24472000       0.23926200
H        2.11552300       3.36249700      -0.30056900
H        3.90395800       1.71376700      -1.99343600
H        2.68616200       2.87500000      -2.60347000
H        4.12883800       3.46668900      -1.73268200
H        1.92809200       1.76852000      -0.59556100
C       -0.32774600      -1.29811400       3.23810700
N        0.13283400      -0.85866300       1.90909300
H       -0.30552100       0.04843600       1.63641500
H        1.16042600      -0.77396400       1.85211000
H       -1.40811000      -1.43788400       3.19578700
H        0.15391000      -2.24164400       3.49476500
H       -0.07423000      -0.54142700       3.98100000
H       -0.15325500      -1.55222700       1.18835600
C        1.13364200      -1.80279700      -3.10968400
N        1.24101900      -1.53454000      -1.66261300
H        0.65429300      -2.18807200      -1.10806100
H        2.21415400      -1.52345200      -1.32349600
H        0.08036900      -1.75870000      -3.38570700
H        1.69956400      -1.04900800      -3.65738500
H        1.53423000      -2.79291600      -3.32706400
H        0.87474000      -0.59052900      -1.40549000
N       -3.89486100       1.22007600       0.56476300
C       -3.85053100       2.70171700       0.47692000
C       -4.68670300       0.62941100      -0.54354200
C       -4.36028000       0.75618700       1.89337200
H       -4.65920800      -0.45470500      -0.44601800
H       -5.71087200       1.00431500      -0.48183000
H       -4.22160900       0.92594900      -1.48319300
H       -3.17864100       3.07238300       1.24994400
H       -3.45087000       2.97297900      -0.49963000
H       -4.86149900       3.09294100       0.61038000
H       -3.69645000       1.17405300       2.65075000
H       -5.38429800       1.10057100       2.05381300
H       -4.30288600      -0.33134900       1.90917200
H       -2.91802600       0.88575100       0.46592700
55
3sa3ma1tma-11
S        3.96667500      -0.53764700       0.53330500
O        3.43106800      -1.69528100      -0.20443300
O        4.57328600       0.48525600      -0.34430000
O        3.04576700       0.03990800       1.52789300
O        5.16464300      -1.12573800       1.45713500
H        5.75602400      -1.64105200       0.89182500
S       -2.05394000      -2.26978600      -0.27209700
O       -2.49956300      -1.32055000       0.77440300
O       -0.61573500      -2.64536200      -0.03183600
O       -2.92303200      -3.40110300      -0.52520500
O       -2.02027300      -1.43360300      -1.65172600
H       -1.85895500      -0.45517000      -1.49471200
S       -0.62016000       1.72705600      -0.49980900
O       -0.39479800       3.16030500      -0.73854100
O       -1.02861200       1.46263600       0.93319700
O       -1.68259800       1.14846100      -1.39421800
O        0.68088300       0.95514000      -0.74655400
C        0.96442500      -1.75809200      -3.24974900
N        1.11910100      -1.51608900      -1.80297300
H        0.47438500      -2.11156800      -1.23912200
H        2.07426400      -1.67469700      -1.44602900
H       -0.08032500      -1.59599100      -3.51388100
H        1.60362900      -1.07055100      -3.80384900
H        1.24378600      -2.78683900      -3.47700700
H        0.87727800      -0.53450500      -1.53766700
C        2.74311200       3.72344500      -1.04360100
N        2.72539900       2.54855100      -0.14505500
H        3.57524700       1.95683700      -0.21783000
H        2.61080500       2.80927700       0.83224800
H        2.92299300       3.37072900      -2.05873000
H        1.76481900       4.20155500      -0.99947700
H        3.53849000       4.40729600      -0.74590800
H        1.90888100       1.90938200      -0.38199200
C       -0.04148500      -1.17779700       3.16250500
N        0.33346600      -0.76475200       1.79759300
H        1.33944800      -0.54389300       1.71198900
H        0.08442900      -1.51506200       1.12292300
H        0.16313200      -0.36284700       3.85729100
H       -1.10478400      -1.41839400       3.16393700
H        0.53556900      -2.05713200       3.44870100
H       -0.20517200       0.08244800       1.49985000
N       -3.83473700       1.16927200       0.63609900
C       -3.81615600       2.64374000       0.45892400
C       -4.65765200       0.50490500      -0.40604600
C       -4.25009000       0.77948000       2.00483600
H       -4.61546600      -0.57099900      -0.24529200
H       -5.68328200       0.87296900      -0.32847300
H       -4.23103800       0.74880600      -1.37828000
H       -3.12025900       3.06937200       1.18058600
H       -3.45988600       2.86383200      -0.54695700
H       -4.82693200       3.02907600       0.60969800
H       -3.57128600       1.25273900       2.71490500
H       -5.27461300       1.11655400       2.17707600
H       -4.17242000      -0.30413600       2.08374300
H       -2.85377600       0.84447300       0.53067300
