1b_1dma_4w.log
 OpenBabel02281910103D
Gaussian kemi/andersx/programs/g09/g09 # opt freq 6-31++g(d,p) wb97xd
 28 22  0  0  0  0  0  0  0  0999 V2000
   -1.7861    1.9813    0.6937 C   0  0  0  0  0  0  0  0  0  0  0  0
   -2.2552    0.9171   -0.1888 N   0  0  0  0  0  0  0  0  0  0  0  0
   -3.3062    1.3395   -1.1008 C   0  0  0  0  0  0  0  0  0  0  0  0
   -0.0266   -0.0440   -1.2445 O   0  0  0  0  0  0  0  0  0  0  0  0
    0.3832   -1.3018   -0.3051 S   0  0  0  0  0  0  0  0  0  0  0  0
    0.2542   -0.7907    1.0924 O   0  0  0  0  0  0  0  0  0  0  0  0
   -0.5995   -2.3627   -0.5853 O   0  0  0  0  0  0  0  0  0  0  0  0
    1.7635   -1.6003   -0.7005 O   0  0  0  0  0  0  0  0  0  0  0  0
    1.7438    1.4852    1.8164 O   0  0  0  0  0  0  0  0  0  0  0  0
    3.7542    0.3206    0.0274 O   0  0  0  0  0  0  0  0  0  0  0  0
   -2.4665   -1.6009    1.4578 O   0  0  0  0  0  0  0  0  0  0  0  0
    1.8125    2.1462   -1.0117 O   0  0  0  0  0  0  0  0  0  0  0  0
   -0.9249    0.3179   -0.9042 H   0  0  0  0  0  0  0  0  0  0  0  0
    1.2275    0.6683    1.6837 H   0  0  0  0  0  0  0  0  0  0  0  0
    3.3672    0.6156    0.8676 H   0  0  0  0  0  0  0  0  0  0  0  0
    1.6304    1.9638    0.9776 H   0  0  0  0  0  0  0  0  0  0  0  0
    3.1984   -0.4374   -0.2302 H   0  0  0  0  0  0  0  0  0  0  0  0
   -2.5703    0.1227    0.3755 H   0  0  0  0  0  0  0  0  0  0  0  0
   -2.1560   -2.1297    0.7037 H   0  0  0  0  0  0  0  0  0  0  0  0
   -1.6117   -1.2944    1.8011 H   0  0  0  0  0  0  0  0  0  0  0  0
    2.6531    1.6662   -0.9005 H   0  0  0  0  0  0  0  0  0  0  0  0
    1.1839    1.4400   -1.2377 H   0  0  0  0  0  0  0  0  0  0  0  0
   -1.0404    1.5743    1.3798 H   0  0  0  0  0  0  0  0  0  0  0  0
   -1.3019    2.7635    0.0995 H   0  0  0  0  0  0  0  0  0  0  0  0
   -2.6032    2.4374    1.2749 H   0  0  0  0  0  0  0  0  0  0  0  0
   -2.9143    2.0993   -1.7859 H   0  0  0  0  0  0  0  0  0  0  0  0
   -3.6370    0.4838   -1.6952 H   0  0  0  0  0  0  0  0  0  0  0  0
   -4.1785    1.7662   -0.5794 H   0  0  0  0  0  0  0  0  0  0  0  0
  1 25  1  0  0  0  0
  1 23  1  0  0  0  0
  2 18  1  0  0  0  0
  2  1  1  0  0  0  0
  3 28  1  0  0  0  0
  3  2  1  0  0  0  0
  4 13  1  0  0  0  0
  4  5  1  0  0  0  0
  5  6  1  0  0  0  0
  7  5  2  0  0  0  0
  8  5  2  0  0  0  0
 10 15  1  0  0  0  0
 11 20  1  0  0  0  0
 12 21  1  0  0  0  0
 14  9  1  0  0  0  0
 16  9  1  0  0  0  0
 17 10  1  0  0  0  0
 19 11  1  0  0  0  0
 22 12  1  0  0  0  0
 24  1  1  0  0  0  0
 26  3  1  0  0  0  0
 27  3  1  0  0  0  0
M  RAD  1   6   2
M  END
$$$$
