1sa_1b_2dma_2w.log
 OpenBabel02281910103D
Gaussian kemi/andersx/programs/g09/g09 # opt freq 6-31++g(d,p) wb97xd
 39 33  0  0  0  0  0  0  0  0999 V2000
   -2.5931    2.2668    0.0996 C   0  0  0  0  0  0  0  0  0  0  0  0
   -2.6416    1.1510    1.0640 N   0  0  0  0  0  0  0  0  0  0  0  0
   -3.7607    1.2155    2.0152 C   0  0  0  0  0  0  0  0  0  0  0  0
   -0.3094    1.2106    2.3892 O   0  0  0  0  0  0  0  0  0  0  0  0
   -3.0745   -1.2167   -0.0961 O   0  0  0  0  0  0  0  0  0  0  0  0
   -1.9352   -1.6225   -0.9742 S   0  0  0  0  0  0  0  0  0  0  0  0
   -0.8227   -2.2357   -0.2217 O   0  0  0  0  0  0  0  0  0  0  0  0
   -2.3496   -2.3510   -2.1657 O   0  0  0  0  0  0  0  0  0  0  0  0
   -1.3877   -0.1628   -1.4505 O   0  0  0  0  0  0  0  0  0  0  0  0
    1.2522    0.3954   -1.4322 O   0  0  0  0  0  0  0  0  0  0  0  0
    1.7288    1.6327   -0.7764 S   0  0  0  0  0  0  0  0  0  0  0  0
    3.0341    1.4587   -0.1283 O   0  0  0  0  0  0  0  0  0  0  0  0
    0.7169    2.3330    0.0256 O   0  0  0  0  0  0  0  0  0  0  0  0
    1.9689    2.6924   -2.0135 O   0  0  0  0  0  0  0  0  0  0  0  0
    2.9187   -1.4419    0.8916 N   0  0  0  0  0  0  0  0  0  0  0  0
    2.6479   -2.4107   -0.1633 C   0  0  0  0  0  0  0  0  0  0  0  0
    4.1220   -1.7397    1.6465 C   0  0  0  0  0  0  0  0  0  0  0  0
    0.4175   -1.3435    2.1316 O   0  0  0  0  0  0  0  0  0  0  0  0
   -0.4016   -0.1123   -1.4451 H   0  0  0  0  0  0  0  0  0  0  0  0
   -1.7261    1.1344    1.6023 H   0  0  0  0  0  0  0  0  0  0  0  0
   -2.7228    0.2311    0.5469 H   0  0  0  0  0  0  0  0  0  0  0  0
   -2.6349    3.2137    0.6440 H   0  0  0  0  0  0  0  0  0  0  0  0
   -3.4359    2.1859   -0.5895 H   0  0  0  0  0  0  0  0  0  0  0  0
   -1.6540    2.2019   -0.4487 H   0  0  0  0  0  0  0  0  0  0  0  0
   -3.6764    2.1206    2.6209 H   0  0  0  0  0  0  0  0  0  0  0  0
   -3.7208    0.3365    2.6594 H   0  0  0  0  0  0  0  0  0  0  0  0
   -4.7054    1.2173    1.4672 H   0  0  0  0  0  0  0  0  0  0  0  0
    2.5058    2.2300   -2.6695 H   0  0  0  0  0  0  0  0  0  0  0  0
    1.3472   -1.3718    1.7919 H   0  0  0  0  0  0  0  0  0  0  0  0
    2.9955   -0.5094    0.4859 H   0  0  0  0  0  0  0  0  0  0  0  0
    5.0219   -1.8284    1.0118 H   0  0  0  0  0  0  0  0  0  0  0  0
    3.9940   -2.6879    2.1822 H   0  0  0  0  0  0  0  0  0  0  0  0
    4.2970   -0.9519    2.3846 H   0  0  0  0  0  0  0  0  0  0  0  0
    3.4788   -2.4991   -0.8843 H   0  0  0  0  0  0  0  0  0  0  0  0
    1.7414   -2.1193   -0.6967 H   0  0  0  0  0  0  0  0  0  0  0  0
    2.4741   -3.3953    0.2858 H   0  0  0  0  0  0  0  0  0  0  0  0
    0.0047    0.2667    2.3762 H   0  0  0  0  0  0  0  0  0  0  0  0
    0.2306    1.6630    1.7163 H   0  0  0  0  0  0  0  0  0  0  0  0
   -0.1119   -1.6878    1.3864 H   0  0  0  0  0  0  0  0  0  0  0  0
  1 22  1  0  0  0  0
  1  2  1  0  0  0  0
  2 20  1  0  0  0  0
  2  3  1  0  0  0  0
  3 25  1  0  0  0  0
  3 26  1  0  0  0  0
  6  7  2  0  0  0  0
  6  5  1  0  0  0  0
  8  6  2  0  0  0  0
  9 19  1  0  0  0  0
  9  6  1  0  0  0  0
 10 11  2  0  0  0  0
 11 12  2  0  0  0  0
 11 13  1  0  0  0  0
 14 11  1  0  0  0  0
 15 17  1  0  0  0  0
 16 36  1  0  0  0  0
 16 15  1  0  0  0  0
 17 32  1  0  0  0  0
 17 33  1  0  0  0  0
 21  2  1  0  0  0  0
 23  1  1  0  0  0  0
 24  1  1  0  0  0  0
 27  3  1  0  0  0  0
 28 14  1  0  0  0  0
 29 18  1  0  0  0  0
 30 15  1  0  0  0  0
 31 17  1  0  0  0  0
 34 16  1  0  0  0  0
 35 16  1  0  0  0  0
 37  4  1  0  0  0  0
 38  4  1  0  0  0  0
 39 18  1  0  0  0  0
M  RAD  2   5   2  13   2
M  END
$$$$
