1sa_1b_1dma_5w.log
 OpenBabel02281910103D
Gaussian kemi/andersx/programs/g09/g09 # opt freq 6-31++g(d,p) wb97xd
 38 30  0  0  0  0  0  0  0  0999 V2000
   -2.2264   -3.4256    0.7223 C   0  0  0  0  0  0  0  0  0  0  0  0
   -1.9398   -2.2631   -0.1371 N   0  0  0  0  0  0  0  0  0  0  0  0
   -2.4722   -2.3506   -1.5104 C   0  0  0  0  0  0  0  0  0  0  0  0
    0.6768   -2.3765   -0.8024 O   0  0  0  0  0  0  0  0  0  0  0  0
    1.7686   -1.4293   -0.4691 S   0  0  0  0  0  0  0  0  0  0  0  0
    1.3900   -0.0474   -1.2292 O   0  0  0  0  0  0  0  0  0  0  0  0
    1.7950   -1.1095    0.9798 O   0  0  0  0  0  0  0  0  0  0  0  0
    3.0783   -1.7715   -1.0174 O   0  0  0  0  0  0  0  0  0  0  0  0
   -0.6499   -1.2756    2.3336 O   0  0  0  0  0  0  0  0  0  0  0  0
    3.0958    2.0873   -0.3184 O   0  0  0  0  0  0  0  0  0  0  0  0
   -1.1301    1.4589    1.3541 O   0  0  0  0  0  0  0  0  0  0  0  0
   -1.9594    1.1269    0.1784 S   0  0  0  0  0  0  0  0  0  0  0  0
   -2.6739    2.4588   -0.3125 O   0  0  0  0  0  0  0  0  0  0  0  0
   -1.1395    0.6395   -0.9696 O   0  0  0  0  0  0  0  0  0  0  0  0
   -3.0669    0.2005    0.4831 O   0  0  0  0  0  0  0  0  0  0  0  0
   -0.6829    3.9721   -1.1398 O   0  0  0  0  0  0  0  0  0  0  0  0
    4.4363   -0.0390    1.0128 O   0  0  0  0  0  0  0  0  0  0  0  0
    0.9480    3.3559    0.8571 O   0  0  0  0  0  0  0  0  0  0  0  0
    0.2572   -1.2776    1.9781 H   0  0  0  0  0  0  0  0  0  0  0  0
   -2.3144   -1.3963    0.2988 H   0  0  0  0  0  0  0  0  0  0  0  0
    0.4469    0.2149   -1.0384 H   0  0  0  0  0  0  0  0  0  0  0  0
   -0.8989   -0.3400    2.3084 H   0  0  0  0  0  0  0  0  0  0  0  0
   -0.9023   -2.1544   -0.2141 H   0  0  0  0  0  0  0  0  0  0  0  0
   -1.9657    3.0998   -0.6297 H   0  0  0  0  0  0  0  0  0  0  0  0
   -0.3117    3.4952   -1.8881 H   0  0  0  0  0  0  0  0  0  0  0  0
   -0.0128    3.8623   -0.4095 H   0  0  0  0  0  0  0  0  0  0  0  0
    2.5812    1.4138   -0.7921 H   0  0  0  0  0  0  0  0  0  0  0  0
    3.7048    1.5540    0.2247 H   0  0  0  0  0  0  0  0  0  0  0  0
    3.5939   -0.3420    1.3906 H   0  0  0  0  0  0  0  0  0  0  0  0
    4.5115   -0.6163    0.2399 H   0  0  0  0  0  0  0  0  0  0  0  0
    0.3915    2.6377    1.2035 H   0  0  0  0  0  0  0  0  0  0  0  0
    1.7786    2.9388    0.5416 H   0  0  0  0  0  0  0  0  0  0  0  0
   -1.7930   -3.2170    1.7006 H   0  0  0  0  0  0  0  0  0  0  0  0
   -3.3075   -3.5584    0.8019 H   0  0  0  0  0  0  0  0  0  0  0  0
   -1.7701   -4.3138    0.2811 H   0  0  0  0  0  0  0  0  0  0  0  0
   -3.5565   -2.4694   -1.4698 H   0  0  0  0  0  0  0  0  0  0  0  0
   -2.2168   -1.4223   -2.0216 H   0  0  0  0  0  0  0  0  0  0  0  0
   -2.0100   -3.1995   -2.0168 H   0  0  0  0  0  0  0  0  0  0  0  0
  1 34  1  0  0  0  0
  1 33  1  0  0  0  0
  2 20  1  0  0  0  0
  2  1  1  0  0  0  0
  3 36  1  0  0  0  0
  3  2  1  0  0  0  0
  4  5  2  0  0  0  0
  5  7  1  0  0  0  0
  6 21  1  0  0  0  0
  6  5  1  0  0  0  0
  8  5  2  0  0  0  0
 10 28  1  0  0  0  0
 12 15  2  0  0  0  0
 12 11  1  0  0  0  0
 13 12  1  0  0  0  0
 14 12  2  0  0  0  0
 16 26  1  0  0  0  0
 17 29  1  0  0  0  0
 18 31  1  0  0  0  0
 19  9  1  0  0  0  0
 22  9  1  0  0  0  0
 23  2  1  0  0  0  0
 24 13  1  0  0  0  0
 25 16  1  0  0  0  0
 27 10  1  0  0  0  0
 30 17  1  0  0  0  0
 32 18  1  0  0  0  0
 35  1  1  0  0  0  0
 37  3  1  0  0  0  0
 38  3  1  0  0  0  0
M  RAD  2   7   2  11   2
M  END
$$$$
