1sa_1b_2dma_1w.log
 OpenBabel02281910103D
Gaussian kemi/andersx/programs/g09/g09 # opt freq 6-31++g(d,p) wb97xd
 36 31  0  0  0  0  0  0  0  0999 V2000
    2.6404   -2.1420   -0.3382 C   0  0  0  0  0  0  0  0  0  0  0  0
    2.8902   -0.9989    0.5623 N   0  0  0  0  0  0  0  0  0  0  0  0
    4.1515   -1.0636    1.3144 C   0  0  0  0  0  0  0  0  0  0  0  0
    0.7188   -0.5317    2.0763 O   0  0  0  0  0  0  0  0  0  0  0  0
    2.7757    1.5379   -0.3889 O   0  0  0  0  0  0  0  0  0  0  0  0
    1.3318    1.7280   -0.7104 S   0  0  0  0  0  0  0  0  0  0  0  0
    0.4966    1.7491    0.5274 O   0  0  0  0  0  0  0  0  0  0  0  0
    1.0481    2.8281   -1.6210 O   0  0  0  0  0  0  0  0  0  0  0  0
    1.0035    0.3326   -1.4362 O   0  0  0  0  0  0  0  0  0  0  0  0
   -1.3888   -0.6219   -1.3835 O   0  0  0  0  0  0  0  0  0  0  0  0
   -1.7078   -1.7795   -0.4870 S   0  0  0  0  0  0  0  0  0  0  0  0
   -2.7937   -1.2122    0.5381 O   0  0  0  0  0  0  0  0  0  0  0  0
   -0.5139   -2.1508    0.3262 O   0  0  0  0  0  0  0  0  0  0  0  0
   -2.3300   -2.9098   -1.1627 O   0  0  0  0  0  0  0  0  0  0  0  0
   -2.3816    1.3732    0.8003 N   0  0  0  0  0  0  0  0  0  0  0  0
   -3.1474    1.9898   -0.2781 C   0  0  0  0  0  0  0  0  0  0  0  0
   -2.6699    1.9342    2.1120 C   0  0  0  0  0  0  0  0  0  0  0  0
    2.8728   -0.0875    0.0346 H   0  0  0  0  0  0  0  0  0  0  0  0
    0.0345    0.0456   -1.3884 H   0  0  0  0  0  0  0  0  0  0  0  0
    2.0728   -0.8987    1.2345 H   0  0  0  0  0  0  0  0  0  0  0  0
    0.5834    0.3481    1.6666 H   0  0  0  0  0  0  0  0  0  0  0  0
    0.1145   -1.1246    1.5698 H   0  0  0  0  0  0  0  0  0  0  0  0
    2.7406   -3.0712    0.2272 H   0  0  0  0  0  0  0  0  0  0  0  0
    3.3601   -2.1182   -1.1588 H   0  0  0  0  0  0  0  0  0  0  0  0
    1.6209   -2.0609   -0.7143 H   0  0  0  0  0  0  0  0  0  0  0  0
    4.1411   -1.9318    1.9767 H   0  0  0  0  0  0  0  0  0  0  0  0
    4.2512   -0.1503    1.9019 H   0  0  0  0  0  0  0  0  0  0  0  0
    4.9886   -1.1392    0.6168 H   0  0  0  0  0  0  0  0  0  0  0  0
   -1.3855    1.4998    0.6001 H   0  0  0  0  0  0  0  0  0  0  0  0
   -2.6207   -0.2046    0.6848 H   0  0  0  0  0  0  0  0  0  0  0  0
   -3.7120    1.7251    2.3801 H   0  0  0  0  0  0  0  0  0  0  0  0
   -2.5131    3.0238    2.1504 H   0  0  0  0  0  0  0  0  0  0  0  0
   -2.0219    1.4626    2.8553 H   0  0  0  0  0  0  0  0  0  0  0  0
   -4.2158    1.8045   -0.1190 H   0  0  0  0  0  0  0  0  0  0  0  0
   -2.8512    1.5244   -1.2204 H   0  0  0  0  0  0  0  0  0  0  0  0
   -2.9825    3.0763   -0.3415 H   0  0  0  0  0  0  0  0  0  0  0  0
  1 23  1  0  0  0  0
  1  2  1  0  0  0  0
  2 20  1  0  0  0  0
  2  3  1  0  0  0  0
  3 27  1  0  0  0  0
  3 26  1  0  0  0  0
  6  5  2  0  0  0  0
  6  7  1  0  0  0  0
  8  6  2  0  0  0  0
  9 19  1  0  0  0  0
  9  6  1  0  0  0  0
 10 11  2  0  0  0  0
 11 13  1  0  0  0  0
 11 12  1  0  0  0  0
 12 30  1  0  0  0  0
 14 11  2  0  0  0  0
 15 17  1  0  0  0  0
 16 34  1  0  0  0  0
 16 15  1  0  0  0  0
 17 32  1  0  0  0  0
 17 31  1  0  0  0  0
 17 33  1  0  0  0  0
 18  2  1  0  0  0  0
 21  4  1  0  0  0  0
 22  4  1  0  0  0  0
 24  1  1  0  0  0  0
 25  1  1  0  0  0  0
 28  3  1  0  0  0  0
 29 15  1  0  0  0  0
 35 16  1  0  0  0  0
 36 16  1  0  0  0  0
M  RAD  2   7   2  13   2
M  END
$$$$
