1w.log
 OpenBabel02281910103D
Gaussian 09 # opt freq wB97XD/6-31++G(d,p)
  3  2  0  0  0  0  0  0  0  0999 V2000
    0.0000    0.0000    0.1157 O   0  0  0  0  0  0  0  0  0  0  0  0
    0.0000    0.7664   -0.4629 H   0  0  0  0  0  0  0  0  0  0  0  0
    0.0000   -0.7664   -0.4629 H   0  0  0  0  0  0  0  0  0  0  0  0
  2  1  1  0  0  0  0
  3  1  1  0  0  0  0
M  END
$$$$
