3sa_1b_2dma_2w.log
 OpenBabel02281910103D
Gaussian kemi/andersx/programs/g09/g09 # opt freq 6-31++g(d,p) wb97xd
 53 44  0  0  0  0  0  0  0  0999 V2000
   -4.8732    0.1324    1.1236 C   0  0  0  0  0  0  0  0  0  0  0  0
   -4.0202    0.6611    0.0401 N   0  0  0  0  0  0  0  0  0  0  0  0
   -4.5680    0.4733   -1.3210 C   0  0  0  0  0  0  0  0  0  0  0  0
   -1.8544   -1.0846    0.0441 O   0  0  0  0  0  0  0  0  0  0  0  0
   -2.3290   -2.4775   -0.2329 S   0  0  0  0  0  0  0  0  0  0  0  0
   -3.7812   -2.5499   -0.3797 O   0  0  0  0  0  0  0  0  0  0  0  0
   -1.5562   -3.0938   -1.3318 O   0  0  0  0  0  0  0  0  0  0  0  0
   -2.0038   -3.3157    1.0936 O   0  0  0  0  0  0  0  0  0  0  0  0
   -0.1470    0.1834    1.8123 O   0  0  0  0  0  0  0  0  0  0  0  0
    1.0488   -3.5452   -1.2455 O   0  0  0  0  0  0  0  0  0  0  0  0
    1.6022   -2.8284    0.0612 S   0  0  0  0  0  0  0  0  0  0  0  0
    0.6855   -3.1438    1.1691 O   0  0  0  0  0  0  0  0  0  0  0  0
    1.5875   -1.3492   -0.2466 O   0  0  0  0  0  0  0  0  0  0  0  0
    2.9740   -3.3004    0.2286 O   0  0  0  0  0  0  0  0  0  0  0  0
    4.0818   -0.2939    0.3151 N   0  0  0  0  0  0  0  0  0  0  0  0
    5.0996   -1.0413   -0.4526 C   0  0  0  0  0  0  0  0  0  0  0  0
    4.1235   -0.5212    1.7769 C   0  0  0  0  0  0  0  0  0  0  0  0
    3.9551    2.5092   -0.2731 O   0  0  0  0  0  0  0  0  0  0  0  0
    2.4882    2.4484   -0.3885 S   0  0  0  0  0  0  0  0  0  0  0  0
    2.0561    2.0166   -1.7520 O   0  0  0  0  0  0  0  0  0  0  0  0
    1.9757    3.9307   -0.1756 O   0  0  0  0  0  0  0  0  0  0  0  0
    1.8764    1.6047    0.6574 O   0  0  0  0  0  0  0  0  0  0  0  0
   -1.6152    2.2479    1.6517 O   0  0  0  0  0  0  0  0  0  0  0  0
   -1.7222    2.9112    0.2127 S   0  0  0  0  0  0  0  0  0  0  0  0
   -1.5471    1.8003   -0.7727 O   0  0  0  0  0  0  0  0  0  0  0  0
   -0.6975    3.9582    0.0905 O   0  0  0  0  0  0  0  0  0  0  0  0
   -3.1137    3.3961    0.1661 O   0  0  0  0  0  0  0  0  0  0  0  0
    0.2305    0.2970   -1.7007 O   0  0  0  0  0  0  0  0  0  0  0  0
   -3.1020    0.1647    0.0718 H   0  0  0  0  0  0  0  0  0  0  0  0
   -1.0199   -3.3202    1.2077 H   0  0  0  0  0  0  0  0  0  0  0  0
   -4.9893   -0.9417    0.9717 H   0  0  0  0  0  0  0  0  0  0  0  0
   -5.8402    0.6384    1.0995 H   0  0  0  0  0  0  0  0  0  0  0  0
   -4.3756    0.3257    2.0742 H   0  0  0  0  0  0  0  0  0  0  0  0
   -4.6953   -0.5961   -1.4939 H   0  0  0  0  0  0  0  0  0  0  0  0
   -3.8482    0.8912   -2.0247 H   0  0  0  0  0  0  0  0  0  0  0  0
   -5.5207    1.0006   -1.3996 H   0  0  0  0  0  0  0  0  0  0  0  0
   -3.8286    1.6714    0.1813 H   0  0  0  0  0  0  0  0  0  0  0  0
    4.1661    0.7235    0.1246 H   0  0  0  0  0  0  0  0  0  0  0  0
    0.9820    3.9247   -0.0825 H   0  0  0  0  0  0  0  0  0  0  0  0
    0.0620   -3.3913   -1.3115 H   0  0  0  0  0  0  0  0  0  0  0  0
    5.0938   -0.2031    2.1626 H   0  0  0  0  0  0  0  0  0  0  0  0
    3.9595   -1.5833    1.9635 H   0  0  0  0  0  0  0  0  0  0  0  0
    3.3268    0.0717    2.2257 H   0  0  0  0  0  0  0  0  0  0  0  0
    6.0934   -0.7510   -0.1066 H   0  0  0  0  0  0  0  0  0  0  0  0
    4.9864   -0.7896   -1.5073 H   0  0  0  0  0  0  0  0  0  0  0  0
    4.9234   -2.1072   -0.3057 H   0  0  0  0  0  0  0  0  0  0  0  0
    3.1296   -0.5880   -0.0024 H   0  0  0  0  0  0  0  0  0  0  0  0
    0.6788    0.3802    1.3413 H   0  0  0  0  0  0  0  0  0  0  0  0
   -0.6011   -0.4995    1.2866 H   0  0  0  0  0  0  0  0  0  0  0  0
   -0.9638    1.4584    1.6937 H   0  0  0  0  0  0  0  0  0  0  0  0
    0.9950    0.9824   -1.7814 H   0  0  0  0  0  0  0  0  0  0  0  0
    0.5677   -0.4494   -1.1266 H   0  0  0  0  0  0  0  0  0  0  0  0
   -0.5174    0.8066   -1.2372 H   0  0  0  0  0  0  0  0  0  0  0  0
  1 33  1  0  0  0  0
  2 29  1  0  0  0  0
  2 37  1  0  0  0  0
  2  1  1  0  0  0  0
  3  2  1  0  0  0  0
  5  4  1  0  0  0  0
  5  8  1  0  0  0  0
  6  5  2  0  0  0  0
  7  5  2  0  0  0  0
  8 30  1  0  0  0  0
 10 11  1  0  0  0  0
 11 14  2  0  0  0  0
 11 12  1  0  0  0  0
 13 11  2  0  0  0  0
 15 17  1  0  0  0  0
 16 46  1  0  0  0  0
 16 44  1  0  0  0  0
 16 15  1  0  0  0  0
 17 42  1  0  0  0  0
 17 41  1  0  0  0  0
 17 43  1  0  0  0  0
 19 18  2  0  0  0  0
 19 21  1  0  0  0  0
 19 22  1  0  0  0  0
 20 19  2  0  0  0  0
 21 39  1  0  0  0  0
 23 50  1  0  0  0  0
 24 23  1  0  0  0  0
 25 24  2  0  0  0  0
 26 24  2  0  0  0  0
 27 24  1  0  0  0  0
 28 53  1  0  0  0  0
 28 52  1  0  0  0  0
 31  1  1  0  0  0  0
 32  1  1  0  0  0  0
 34  3  1  0  0  0  0
 35  3  1  0  0  0  0
 36  3  1  0  0  0  0
 38 15  1  0  0  0  0
 40 10  1  0  0  0  0
 45 16  1  0  0  0  0
 47 15  1  0  0  0  0
 48  9  1  0  0  0  0
 49  9  1  0  0  0  0
M  RAD  5   4   2  12   2  22   2  27   2  51   2
M  END
$$$$
