4sa_1b_1dma_1w.log
 OpenBabel02281910103D
Gaussian kemi/andersx/programs/g09/g09 # opt freq 6-31++g(d,p) wb97xd
 47 40  0  0  0  0  0  0  0  0999 V2000
    3.4026   -1.9352   -0.4421 S   0  0  0  0  0  0  0  0  0  0  0  0
    2.3017   -2.5838    0.5348 O   0  0  0  0  0  0  0  0  0  0  0  0
    4.4165   -1.4035    0.4882 O   0  0  0  0  0  0  0  0  0  0  0  0
    2.6602   -0.7828   -1.1005 O   0  0  0  0  0  0  0  0  0  0  0  0
    3.8506   -2.9362   -1.3841 O   0  0  0  0  0  0  0  0  0  0  0  0
    1.4269   -2.6161    0.0860 H   0  0  0  0  0  0  0  0  0  0  0  0
    4.2671    0.0425    1.0514 H   0  0  0  0  0  0  0  0  0  0  0  0
    3.8728    2.1183    0.3987 S   0  0  0  0  0  0  0  0  0  0  0  0
    4.0691    1.4159   -0.9968 O   0  0  0  0  0  0  0  0  0  0  0  0
    2.4839    2.5509    0.5416 O   0  0  0  0  0  0  0  0  0  0  0  0
    4.8976    3.1187    0.5313 O   0  0  0  0  0  0  0  0  0  0  0  0
    4.1057    0.9631    1.4488 O   0  0  0  0  0  0  0  0  0  0  0  0
    3.4616    0.6242   -1.1132 H   0  0  0  0  0  0  0  0  0  0  0  0
    0.8574    1.8293    0.7867 H   0  0  0  0  0  0  0  0  0  0  0  0
   -2.8294   -1.4007    1.9881 S   0  0  0  0  0  0  0  0  0  0  0  0
   -1.6309   -2.3899    1.7606 O   0  0  0  0  0  0  0  0  0  0  0  0
   -4.0310   -2.0118    1.2175 O   0  0  0  0  0  0  0  0  0  0  0  0
   -2.4614   -0.1213    1.3471 O   0  0  0  0  0  0  0  0  0  0  0  0
   -3.1224   -1.3999    3.3948 O   0  0  0  0  0  0  0  0  0  0  0  0
   -1.1732   -2.2635    0.8713 H   0  0  0  0  0  0  0  0  0  0  0  0
   -4.0620   -1.7645    0.2015 H   0  0  0  0  0  0  0  0  0  0  0  0
   -3.0970    2.4480   -1.0219 S   0  0  0  0  0  0  0  0  0  0  0  0
   -3.9717    1.3384   -0.2654 O   0  0  0  0  0  0  0  0  0  0  0  0
   -2.5189    1.6564   -2.2524 O   0  0  0  0  0  0  0  0  0  0  0  0
   -2.0085    2.8175   -0.1333 O   0  0  0  0  0  0  0  0  0  0  0  0
   -4.0163    3.4261   -1.5311 O   0  0  0  0  0  0  0  0  0  0  0  0
   -3.4118    0.8548    0.4008 H   0  0  0  0  0  0  0  0  0  0  0  0
   -1.7661    1.0608   -1.9464 H   0  0  0  0  0  0  0  0  0  0  0  0
   -0.5932   -1.3044   -1.6102 S   0  0  0  0  0  0  0  0  0  0  0  0
    0.6195   -1.4246   -2.6042 O   0  0  0  0  0  0  0  0  0  0  0  0
   -0.7063    0.1245   -1.2022 O   0  0  0  0  0  0  0  0  0  0  0  0
   -0.2466   -2.1447   -0.4197 O   0  0  0  0  0  0  0  0  0  0  0  0
   -1.7558   -1.7894   -2.3517 O   0  0  0  0  0  0  0  0  0  0  0  0
    1.4638   -1.1595   -2.1299 H   0  0  0  0  0  0  0  0  0  0  0  0
    0.1546    1.2982    1.3253 N   0  0  0  0  0  0  0  0  0  0  0  0
   -0.4106    2.1681    2.3801 C   0  0  0  0  0  0  0  0  0  0  0  0
    0.8453    0.1004    1.8553 C   0  0  0  0  0  0  0  0  0  0  0  0
   -0.5757    1.0037    0.6648 H   0  0  0  0  0  0  0  0  0  0  0  0
    1.6929    0.4256    2.4589 H   0  0  0  0  0  0  0  0  0  0  0  0
    1.2044   -0.4858    1.0142 H   0  0  0  0  0  0  0  0  0  0  0  0
    0.1464   -0.4871    2.4497 H   0  0  0  0  0  0  0  0  0  0  0  0
    0.4033    2.4852    3.0332 H   0  0  0  0  0  0  0  0  0  0  0  0
   -1.1523    1.5960    2.9380 H   0  0  0  0  0  0  0  0  0  0  0  0
   -0.8831    3.0268    1.9082 H   0  0  0  0  0  0  0  0  0  0  0  0
   -4.3375   -0.4307   -1.2659 H   0  0  0  0  0  0  0  0  0  0  0  0
   -4.1830   -1.3841   -1.1974 O   0  0  0  0  0  0  0  0  0  0  0  0
   -3.3649   -1.5688   -1.7086 H   0  0  0  0  0  0  0  0  0  0  0  0
  1  3  1  0  0  0  0
  1  2  1  0  0  0  0
  4  1  2  0  0  0  0
  5  1  2  0  0  0  0
  6  2  1  0  0  0  0
  7 12  1  0  0  0  0
  8 11  2  0  0  0  0
  8 10  2  0  0  0  0
  8 12  1  0  0  0  0
  9  8  1  0  0  0  0
 13  9  1  0  0  0  0
 14 35  1  0  0  0  0
 15 19  2  0  0  0  0
 16 15  1  0  0  0  0
 17 15  1  0  0  0  0
 18 15  2  0  0  0  0
 20 16  1  0  0  0  0
 21 17  1  0  0  0  0
 22 23  1  0  0  0  0
 22 25  2  0  0  0  0
 23 27  1  0  0  0  0
 24 28  1  0  0  0  0
 24 22  1  0  0  0  0
 26 22  2  0  0  0  0
 29 31  2  0  0  0  0
 29 32  1  0  0  0  0
 30 34  1  0  0  0  0
 30 29  1  0  0  0  0
 33 29  2  0  0  0  0
 35 37  1  0  0  0  0
 35 36  1  0  0  0  0
 36 43  1  0  0  0  0
 36 42  1  0  0  0  0
 37 41  1  0  0  0  0
 37 39  1  0  0  0  0
 38 35  1  0  0  0  0
 40 37  1  0  0  0  0
 44 36  1  0  0  0  0
 45 46  1  0  0  0  0
 47 46  1  0  0  0  0
M  RAD  2   3   2  32   2
M  END
$$$$
