4sa_1b_1dma_5w.log
 OpenBabel02281910103D
Gaussian kemi/andersx/programs/g09/g09 # opt freq 6-31++g(d,p) wb97xd
 59 47  0  0  0  0  0  0  0  0999 V2000
   -3.9365   -0.1754   -0.7757 S   0  0  0  0  0  0  0  0  0  0  0  0
   -2.9680    0.5645    0.2727 O   0  0  0  0  0  0  0  0  0  0  0  0
   -4.8265   -0.9882    0.0670 O   0  0  0  0  0  0  0  0  0  0  0  0
   -3.0238   -1.0453   -1.5947 O   0  0  0  0  0  0  0  0  0  0  0  0
   -4.5850    0.8674   -1.5619 O   0  0  0  0  0  0  0  0  0  0  0  0
   -2.0285    0.5390   -0.0475 H   0  0  0  0  0  0  0  0  0  0  0  0
   -4.1508   -2.1179    1.0753 H   0  0  0  0  0  0  0  0  0  0  0  0
   -2.2499   -3.1155    1.0153 S   0  0  0  0  0  0  0  0  0  0  0  0
   -2.4663   -3.3944   -0.5257 O   0  0  0  0  0  0  0  0  0  0  0  0
   -1.4719   -1.8886    1.1512 O   0  0  0  0  0  0  0  0  0  0  0  0
   -1.7495   -4.3284    1.6088 O   0  0  0  0  0  0  0  0  0  0  0  0
   -3.7021   -2.8701    1.5670 O   0  0  0  0  0  0  0  0  0  0  0  0
   -2.6904   -2.5375   -0.9963 H   0  0  0  0  0  0  0  0  0  0  0  0
    0.3855   -1.6382    0.7728 H   0  0  0  0  0  0  0  0  0  0  0  0
    2.1551    1.6078    1.7914 S   0  0  0  0  0  0  0  0  0  0  0  0
    0.5803    1.1442    1.8488 O   0  0  0  0  0  0  0  0  0  0  0  0
    2.2601    2.4989    0.6228 O   0  0  0  0  0  0  0  0  0  0  0  0
    2.8842    0.3280    1.5691 O   0  0  0  0  0  0  0  0  0  0  0  0
    2.3560    2.2162    3.0954 O   0  0  0  0  0  0  0  0  0  0  0  0
    0.2690    0.9313    0.9323 H   0  0  0  0  0  0  0  0  0  0  0  0
    1.1081    3.7721    0.2948 H   0  0  0  0  0  0  0  0  0  0  0  0
    4.9028   -0.8851   -0.8825 S   0  0  0  0  0  0  0  0  0  0  0  0
    5.1183    0.1659    0.2659 O   0  0  0  0  0  0  0  0  0  0  0  0
    4.2231   -0.0575   -2.0510 O   0  0  0  0  0  0  0  0  0  0  0  0
    3.9502   -1.8893   -0.4184 O   0  0  0  0  0  0  0  0  0  0  0  0
    6.2010   -1.2812   -1.3562 O   0  0  0  0  0  0  0  0  0  0  0  0
    4.2674    0.2943    0.7901 H   0  0  0  0  0  0  0  0  0  0  0  0
    3.2442   -0.0011   -1.9232 H   0  0  0  0  0  0  0  0  0  0  0  0
    0.2487    0.3485   -1.8093 S   0  0  0  0  0  0  0  0  0  0  0  0
   -0.5558   -0.8376   -2.4979 O   0  0  0  0  0  0  0  0  0  0  0  0
    1.5863   -0.2083   -1.6015 O   0  0  0  0  0  0  0  0  0  0  0  0
   -0.4531    0.5941   -0.5065 O   0  0  0  0  0  0  0  0  0  0  0  0
    0.1827    1.5201   -2.6922 O   0  0  0  0  0  0  0  0  0  0  0  0
   -1.5194   -0.7916   -2.2571 H   0  0  0  0  0  0  0  0  0  0  0  0
    1.3121   -2.0707    0.6562 N   0  0  0  0  0  0  0  0  0  0  0  0
    1.1876   -3.1496   -0.3547 C   0  0  0  0  0  0  0  0  0  0  0  0
    1.7744   -2.5470    1.9803 C   0  0  0  0  0  0  0  0  0  0  0  0
    1.9675   -1.3579    0.3081 H   0  0  0  0  0  0  0  0  0  0  0  0
    1.0492   -3.2691    2.3581 H   0  0  0  0  0  0  0  0  0  0  0  0
    1.8539   -1.6863    2.6421 H   0  0  0  0  0  0  0  0  0  0  0  0
    2.7551   -3.0050    1.8523 H   0  0  0  0  0  0  0  0  0  0  0  0
    0.5014   -3.9064    0.0278 H   0  0  0  0  0  0  0  0  0  0  0  0
    2.1776   -3.5682   -0.5285 H   0  0  0  0  0  0  0  0  0  0  0  0
    0.8013   -2.7148   -1.2755 H   0  0  0  0  0  0  0  0  0  0  0  0
   -3.8374    2.6130   -1.4620 H   0  0  0  0  0  0  0  0  0  0  0  0
   -3.3745    3.4279   -1.1937 O   0  0  0  0  0  0  0  0  0  0  0  0
   -3.4270    3.4427   -0.2091 H   0  0  0  0  0  0  0  0  0  0  0  0
   -2.5824    3.3141    2.0069 H   0  0  0  0  0  0  0  0  0  0  0  0
   -3.3944    3.1165    1.5101 O   0  0  0  0  0  0  0  0  0  0  0  0
   -3.4139    2.1524    1.4289 H   0  0  0  0  0  0  0  0  0  0  0  0
   -0.1712    4.1996    1.0402 H   0  0  0  0  0  0  0  0  0  0  0  0
    0.3071    4.3360    0.2012 O   0  0  0  0  0  0  0  0  0  0  0  0
   -0.4524    3.9887   -0.9914 H   0  0  0  0  0  0  0  0  0  0  0  0
   -0.4168    3.7561    3.4113 H   0  0  0  0  0  0  0  0  0  0  0  0
   -0.8014    3.3957    2.6072 O   0  0  0  0  0  0  0  0  0  0  0  0
   -0.3589    2.5309    2.4729 H   0  0  0  0  0  0  0  0  0  0  0  0
   -0.5720    2.8828   -2.2104 H   0  0  0  0  0  0  0  0  0  0  0  0
   -0.9834    3.7142   -1.8465 O   0  0  0  0  0  0  0  0  0  0  0  0
   -1.9904    3.5611   -1.6126 H   0  0  0  0  0  0  0  0  0  0  0  0
  1  3  1  0  0  0  0
  1  2  1  0  0  0  0
  4  1  2  0  0  0  0
  5  1  2  0  0  0  0
  6  2  1  0  0  0  0
  7 12  1  0  0  0  0
  8 10  2  0  0  0  0
  8 12  1  0  0  0  0
  8 11  2  0  0  0  0
  9  8  1  0  0  0  0
 13  9  1  0  0  0  0
 15 16  1  0  0  0  0
 15 19  1  0  0  0  0
 17 15  2  0  0  0  0
 18 15  2  0  0  0  0
 20 16  1  0  0  0  0
 22 25  2  0  0  0  0
 22 23  1  0  0  0  0
 23 27  1  0  0  0  0
 24 28  1  0  0  0  0
 24 22  1  0  0  0  0
 26 22  2  0  0  0  0
 29 31  2  0  0  0  0
 29 32  1  0  0  0  0
 30 34  1  0  0  0  0
 30 29  1  0  0  0  0
 33 29  2  0  0  0  0
 35 14  1  0  0  0  0
 35 37  1  0  0  0  0
 36 42  1  0  0  0  0
 36 35  1  0  0  0  0
 37 39  1  0  0  0  0
 37 40  1  0  0  0  0
 38 35  1  0  0  0  0
 41 37  1  0  0  0  0
 43 36  1  0  0  0  0
 44 36  1  0  0  0  0
 45 46  1  0  0  0  0
 46 47  1  0  0  0  0
 49 48  1  0  0  0  0
 50 49  1  0  0  0  0
 52 21  1  0  0  0  0
 52 51  1  0  0  0  0
 55 54  1  0  0  0  0
 56 55  1  0  0  0  0
 57 58  1  0  0  0  0
 58 53  1  0  0  0  0
M  RAD  4   3   2  19   2  32   2  59   2
M  END
$$$$
