4sa_1b_1dma_4w.log
 OpenBabel02281910103D
Gaussian kemi/andersx/programs/g09/g09 # opt freq 6-31++g(d,p) wb97xd
 56 45  0  0  0  0  0  0  0  0999 V2000
   -2.6353   -1.5419   -0.3435 S   0  0  0  0  0  0  0  0  0  0  0  0
   -1.3935   -1.1145   -1.2476 O   0  0  0  0  0  0  0  0  0  0  0  0
   -3.7848   -1.5261   -1.2502 O   0  0  0  0  0  0  0  0  0  0  0  0
   -2.7002   -0.5327    0.7452 O   0  0  0  0  0  0  0  0  0  0  0  0
   -2.3182   -2.8982    0.1788 O   0  0  0  0  0  0  0  0  0  0  0  0
   -0.5731   -1.1081   -0.6585 H   0  0  0  0  0  0  0  0  0  0  0  0
   -4.9768   -0.3575   -1.2748 H   0  0  0  0  0  0  0  0  0  0  0  0
   -5.1763    1.5203   -0.2644 S   0  0  0  0  0  0  0  0  0  0  0  0
   -4.9380    0.8487    1.1539 O   0  0  0  0  0  0  0  0  0  0  0  0
   -3.8847    1.9636   -0.7711 O   0  0  0  0  0  0  0  0  0  0  0  0
   -6.2629    2.4486   -0.1234 O   0  0  0  0  0  0  0  0  0  0  0  0
   -5.6926    0.3272   -1.1622 O   0  0  0  0  0  0  0  0  0  0  0  0
   -4.1094    0.2983    1.1174 H   0  0  0  0  0  0  0  0  0  0  0  0
   -1.7635    1.2222    0.0663 H   0  0  0  0  0  0  0  0  0  0  0  0
    3.7284   -0.8973   -1.3317 S   0  0  0  0  0  0  0  0  0  0  0  0
    2.5671   -1.9727   -1.3302 O   0  0  0  0  0  0  0  0  0  0  0  0
    4.3849   -1.0544    0.0879 O   0  0  0  0  0  0  0  0  0  0  0  0
    3.0814    0.4118   -1.4224 O   0  0  0  0  0  0  0  0  0  0  0  0
    4.7006   -1.2861   -2.3131 O   0  0  0  0  0  0  0  0  0  0  0  0
    1.8042   -1.6673   -0.7232 H   0  0  0  0  0  0  0  0  0  0  0  0
    3.6903   -0.9755    0.8177 H   0  0  0  0  0  0  0  0  0  0  0  0
    3.0662    3.5846    0.1523 S   0  0  0  0  0  0  0  0  0  0  0  0
    3.9440    2.9147   -0.9845 O   0  0  0  0  0  0  0  0  0  0  0  0
    3.2182    2.5905    1.3681 O   0  0  0  0  0  0  0  0  0  0  0  0
    1.6692    3.5909   -0.2611 O   0  0  0  0  0  0  0  0  0  0  0  0
    3.7227    4.8182    0.4901 O   0  0  0  0  0  0  0  0  0  0  0  0
    3.6324    1.9965   -1.1835 H   0  0  0  0  0  0  0  0  0  0  0  0
    2.4762    1.9159    1.3641 H   0  0  0  0  0  0  0  0  0  0  0  0
    1.1335   -0.5179    1.5230 S   0  0  0  0  0  0  0  0  0  0  0  0
    0.1377   -0.7974    2.5871 O   0  0  0  0  0  0  0  0  0  0  0  0
    1.2044    0.9518    1.2626 O   0  0  0  0  0  0  0  0  0  0  0  0
    0.6902   -1.2144    0.2307 O   0  0  0  0  0  0  0  0  0  0  0  0
    2.4788   -1.0756    1.8657 O   0  0  0  0  0  0  0  0  0  0  0  0
   -0.5616   -2.1332    2.5217 H   0  0  0  0  0  0  0  0  0  0  0  0
   -1.0292    1.9285   -0.0766 N   0  0  0  0  0  0  0  0  0  0  0  0
   -1.3710    3.1432    0.7031 C   0  0  0  0  0  0  0  0  0  0  0  0
   -0.8580    2.1740   -1.5300 C   0  0  0  0  0  0  0  0  0  0  0  0
   -0.1488    1.5422    0.3198 H   0  0  0  0  0  0  0  0  0  0  0  0
   -1.7912    2.5756   -1.9229 H   0  0  0  0  0  0  0  0  0  0  0  0
   -0.6337    1.2236   -2.0121 H   0  0  0  0  0  0  0  0  0  0  0  0
   -0.0315    2.8712   -1.6588 H   0  0  0  0  0  0  0  0  0  0  0  0
   -2.3121    3.5419    0.3263 H   0  0  0  0  0  0  0  0  0  0  0  0
   -0.5556    3.8572    0.5896 H   0  0  0  0  0  0  0  0  0  0  0  0
   -1.4745    2.8581    1.7503 H   0  0  0  0  0  0  0  0  0  0  0  0
    0.1043   -3.5501    2.1414 H   0  0  0  0  0  0  0  0  0  0  0  0
   -0.8307   -3.1055    2.3458 O   0  0  0  0  0  0  0  0  0  0  0  0
   -1.4117   -3.0866    1.5345 H   0  0  0  0  0  0  0  0  0  0  0  0
   -1.2548   -3.8873   -1.0692 H   0  0  0  0  0  0  0  0  0  0  0  0
   -0.5930   -4.1527   -1.7301 O   0  0  0  0  0  0  0  0  0  0  0  0
   -0.5627   -3.4090   -2.3401 H   0  0  0  0  0  0  0  0  0  0  0  0
    1.6673   -4.2457    1.0393 H   0  0  0  0  0  0  0  0  0  0  0  0
    1.4894   -3.9120    1.9591 O   0  0  0  0  0  0  0  0  0  0  0  0
    2.0266   -3.1082    2.0625 H   0  0  0  0  0  0  0  0  0  0  0  0
    1.0019   -4.5701   -1.0193 H   0  0  0  0  0  0  0  0  0  0  0  0
    1.8646   -4.6691   -0.5652 O   0  0  0  0  0  0  0  0  0  0  0  0
    2.4361   -4.0066   -0.9748 H   0  0  0  0  0  0  0  0  0  0  0  0
  1  5  2  0  0  0  0
  1  4  1  0  0  0  0
  2  6  1  0  0  0  0
  2  1  1  0  0  0  0
  3  1  2  0  0  0  0
  7 12  1  0  0  0  0
  8 11  2  0  0  0  0
  8  9  1  0  0  0  0
 10  8  2  0  0  0  0
 12  8  1  0  0  0  0
 13  9  1  0  0  0  0
 15 16  1  0  0  0  0
 15 17  1  0  0  0  0
 16 20  1  0  0  0  0
 17 21  1  0  0  0  0
 18 15  2  0  0  0  0
 19 15  2  0  0  0  0
 22 26  2  0  0  0  0
 22 24  1  0  0  0  0
 23 22  1  0  0  0  0
 25 22  2  0  0  0  0
 27 23  1  0  0  0  0
 28 24  1  0  0  0  0
 29 33  1  0  0  0  0
 29 30  1  0  0  0  0
 31 29  2  0  0  0  0
 32 29  2  0  0  0  0
 35 14  1  0  0  0  0
 35 38  1  0  0  0  0
 35 36  1  0  0  0  0
 36 44  1  0  0  0  0
 37 35  1  0  0  0  0
 39 37  1  0  0  0  0
 40 37  1  0  0  0  0
 41 37  1  0  0  0  0
 42 36  1  0  0  0  0
 43 36  1  0  0  0  0
 46 34  1  0  0  0  0
 47 46  1  0  0  0  0
 49 48  1  0  0  0  0
 50 49  1  0  0  0  0
 51 52  1  0  0  0  0
 52 53  1  0  0  0  0
 54 55  1  0  0  0  0
 56 55  1  0  0  0  0
M  RAD  4   4   2  30   2  33   2  45   2
M  END
$$$$
