61
4sa2dma1tma-37
S       -0.63734700      -1.96717000      -1.09154700
O        0.64008600      -1.21748600      -0.93192000
O       -0.47235300      -3.27957900      -1.69066900
O       -1.36184900      -1.99416600       0.22399500
O       -1.55988700      -1.13075200      -2.06992000
H       -1.64216200      -0.17168600      -1.74873200
H       -0.48626500      -1.51681800       1.56384200
S       -2.86062900       1.65180400      -0.24212700
O       -2.75467500       3.06942600       0.12982800
O       -1.75648500       1.27323000      -1.17403200
O       -2.62474200       0.77593500       1.08474900
O       -4.18592400       1.19288000      -0.68483000
H       -3.06177300      -1.61995900       0.11572100
H       -1.66376500       0.83080800       1.35030800
S        2.93083600       1.30615200      -1.19602100
O        3.51636000      -0.00970900      -1.40042700
O        3.38648900       2.44767600      -1.94563000
O        1.36538600       1.19999400      -1.42679200
O        3.03990100       1.69387700       0.32650000
H        2.68948600       0.93205700       0.90717600
H        1.02017000       0.27248200      -1.23792600
S        0.77467400       0.06252500       2.35883700
O        2.04910700      -0.25885100       1.63028900
O       -0.04899700       0.98192700       1.52105000
O       -0.03027700      -1.31580000       2.42476800
O        0.97289100       0.47578200       3.73004900
N       -4.08613400      -1.50675300      -0.03950800
H       -4.21514900      -0.52499100      -0.36874700
C       -4.50916500      -2.45675000      -1.09119200
H       -3.92352600      -2.25671900      -1.98846000
H       -4.31835300      -3.47496300      -0.74948900
H       -5.57231300      -2.32024000      -1.29358900
C       -4.78052600      -1.66124500       1.25740900
H       -4.58538500      -2.65966000       1.65125300
H       -4.39270300      -0.90377300       1.93781500
H       -5.85182600      -1.51846500       1.11007600
C        0.76874300       4.02054900       1.10845600
N        0.03271400       3.39943200      -0.01561800
C        0.26612400       4.02798000      -1.33692200
H        0.28420300       2.40276200      -0.07174100
H        0.46075200       5.06284300       1.20035100
H        0.53099300       3.46812700       2.01699700
H        1.83785500       3.95267700       0.90631100
H       -0.06829500       5.06530200      -1.29422500
H        1.32831000       3.97479800      -1.57822100
H       -0.31007100       3.47262100      -2.07572600
H       -0.98950100       3.40408800       0.16993000
N        2.85571700      -2.60106100       0.11018100
C        4.14672800      -2.22136700       0.74071300
C        2.07414600      -3.52279400       0.97557700
C        3.04385800      -3.15488000      -1.25772100
H        1.14985000      -3.78697500       0.46084100
H        2.66912600      -4.41990700       1.15825500
H        1.84520400      -3.01009200       1.90963000
H        4.63334000      -1.48460200       0.10299600
H        3.93489700      -1.78238600       1.71454000
H        4.76143000      -3.11840600       0.83990400
H        3.54951100      -2.40329200      -1.86222600
H        3.64324700      -4.06473800      -1.18352500
H        2.06303600      -3.37268000      -1.68118000
H        2.28334300      -1.74655300       0.01217400
61
4sa2dma1tma-38
S       -3.60460900      -0.42661700       1.65803900
O       -2.49937200      -0.77696200       2.53988800
O       -4.96474900      -0.45569900       2.11813200
O       -3.31340900       1.00193900       1.04895100
O       -3.54654100      -1.36107400       0.37627200
H       -2.59191800      -1.47964100       0.10125400
H       -2.35030300       1.28711200       1.23019700
S       -0.58933400      -1.53518100      -1.68936200
O       -1.02096000      -1.34287300      -0.27663600
O       -1.71488800      -1.51556000      -2.62490000
O        0.47803500      -0.53872700      -2.01518900
O        0.06122700      -2.96149200      -1.81856300
H        0.89145100      -2.98854200      -1.25687000
H        0.63501900       0.63170600      -0.86419000
S        3.18219600      -1.73217300      -0.17072300
O        2.77055800      -0.69388500       0.83227200
O        2.15964900      -2.79844100      -0.25355200
O        3.13881500      -0.94208100      -1.58884200
O        4.56001600      -2.15319700      -0.03080600
H        3.10896600       1.00652500       0.18296500
H        2.19897200      -0.83291100      -1.86557400
S       -0.24974900       2.31819000       0.21877200
O        0.94067000       1.31640100      -0.21262000
O       -0.88392000       1.66029200       1.40212200
O        0.45740800       3.54831600       0.54468700
O       -1.18066900       2.36898100      -0.92432700
H       -2.60643000       1.28699500      -1.37071100
N       -3.13021700       0.85949600      -2.15668300
H       -2.81568500      -0.12620200      -2.21722800
C       -4.59023100       0.93388600      -1.92122500
H       -4.83372800       0.34511600      -1.03958600
H       -4.86899000       1.97543600      -1.76135200
H       -5.10704400       0.53342100      -2.79420500
C       -2.67172300       1.53702400      -3.39401100
H       -2.91799100       2.59671900      -3.32821900
H       -1.59233700       1.41377200      -3.46718100
H       -3.16372000       1.07723000      -4.25161800
C        0.62598400      -0.14239000       3.43756700
N        0.38268000      -0.91243200       2.19942400
C        0.20735600      -2.36583800       2.42436900
H       -0.45280700      -0.53422000       1.74004500
H        1.54726800      -0.50166400       3.89840700
H        0.70329600       0.91170600       3.17552700
H       -0.22115700      -0.28525900       4.10885800
H        1.12052500      -2.76091500       2.87071000
H       -0.64924400      -2.51598800       3.08087600
H        0.03461200      -2.84007600       1.46087400
H        1.18349500      -0.77301700       1.55045700
N        3.78739400       1.79207500       0.12844800
C        3.55655300       2.61729700       1.34254900
C        5.13796700       1.17008600       0.12525500
C        3.53581300       2.56188600      -1.11687500
H        5.23395700       0.54604200      -0.76297900
H        5.88914900       1.96232700       0.12631800
H        5.23498800       0.53882600       1.00752600
H        2.54428000       3.02437400       1.30153500
H        3.67869100       1.97785100       2.21741800
H        4.29021800       3.42595500       1.36399500
H        2.54927200       3.01745400      -1.05159600
H        4.30821900       3.32792800      -1.21329000
H        3.57864500       1.87124700      -1.95917400
61
4sa2dma1tma-31
S        0.18282300      -1.60384300      -1.92629600
O        1.28529000      -0.62994400      -1.62361400
O        0.68209300      -2.82347800      -2.53478300
O       -0.63426600      -1.80714100      -0.69893200
O       -0.76342300      -0.90510500      -2.98882500
H       -1.30776300      -0.21103700      -2.52488700
H       -0.58168900      -0.53765200       0.31075400
S        2.59091800       2.23529000      -0.37973600
O        3.56938800       1.20846800      -0.70497700
O        2.82163500       3.61713200      -0.70895200
O        1.20345200       1.81557500      -1.02047800
O        2.28301200       2.19323900       1.16719600
H        2.10650900       1.24067200       1.46810900
H        1.19532500       0.83120900      -1.29543000
S       -3.35702200       0.75278800      -0.87749800
O       -3.50925400       1.69855100       0.23322200
O       -2.07428800       0.94216600      -1.60072000
O       -3.63592600      -0.65776300      -0.55888600
O       -4.53047400       1.20024800      -1.90203200
H       -4.63579600       0.50679600      -2.56783900
S        0.32673500      -0.42301800       2.26937000
O       -0.62451600       0.11102500       1.07194500
O        0.00185300       0.44749000       3.38630100
O        0.00134600      -1.85574400       2.42386600
O        1.72213600      -0.24846600       1.75238800
C       -3.37922600      -1.95278700       2.39738100
N       -2.50519200      -2.36623400       1.27830200
C       -2.73840200      -3.73407500       0.77073100
H       -2.65836000      -1.70089300       0.49662900
H       -3.22182300      -2.62247000       3.24358600
H       -3.11407900      -0.93308100       2.67673500
H       -4.41768600      -1.98452700       2.06693200
H       -2.56362800      -4.45123000       1.57412500
H       -3.76715800      -3.80966100       0.41626500
H       -2.04590200      -3.90624700      -0.05284900
H       -1.51756600      -2.27113100       1.58582500
C       -0.66792800       3.38996800       1.88192700
N       -1.01408700       2.91542400       0.52169600
C       -0.96885700       3.95958500      -0.52709600
H       -0.37728600       2.15650300       0.25009800
H       -1.39856000       4.14114400       2.18500800
H       -0.68574300       2.53837800       2.56346700
H        0.33452200       3.81748700       1.86038700
H       -1.67992300       4.74589200      -0.27072200
H        0.04355500       4.36110200      -0.58584100
H       -1.24069500       3.49596800      -1.47467900
H       -1.95762900       2.47976300       0.52608200
N        3.38441000      -1.80292600      -0.11768400
C        4.37522000      -1.35056800       0.89352400
C        2.66734400      -3.02841300       0.32922400
C        4.00367600      -1.97748000      -1.45896500
H        1.98814400      -3.34362700      -0.46336300
H        3.40627800      -3.80856000       0.52400900
H        2.10370100      -2.78898300       1.23162400
H        4.79431500      -0.40158500       0.56205200
H        3.85701100      -1.21396700       1.84111300
H        5.15267400      -2.11259300       0.97858000
H        4.42737100      -1.02105500      -1.76379900
H        4.77947400      -2.74243100      -1.38586400
H        3.22695200      -2.27791900      -2.16163200
H        2.66886400      -1.06697200      -0.22624400
