45
3sa1am1ma1tma-37
S       -2.40365900      -1.59615300       0.53971900
O       -2.16499400      -1.35513300      -1.04418500
O       -2.11148700      -0.25327400       1.15734300
O       -1.37957700      -2.57315900       0.97340100
O       -3.79191900      -1.98802500       0.64805300
H       -0.11866700      -3.25876100       0.07470100
H       -1.19058800      -1.32704400      -1.21574500
S        1.33344300       2.28270700       0.16486900
O        1.91502800       1.73741900       1.42103800
O        0.08346000       1.29734800      -0.17269600
O        0.69772300       3.58507900       0.28312900
O        2.28033700       2.12101100      -0.96554100
H        3.31972700       0.85537200      -0.67757400
S        1.49212900      -2.08910000      -0.65569000
O        0.70018300      -3.44234100      -0.46193800
O        1.95185200      -1.63938900       0.69789800
O        2.60157900      -2.35546800      -1.55453200
O        0.49837000      -1.09898200      -1.19013100
H        0.38314900       0.42973000      -0.55311600
N        0.31413300      -0.27666900       2.42468900
H        0.25513000      -0.53735200       3.40392800
H        0.84343100      -0.98914200       1.88257900
H       -0.64226100      -0.20917200       2.00383500
H        0.83239300       0.61308000       2.28297000
N        3.92699600       0.08349800      -0.29409600
H        4.21371600      -0.53014100      -1.05845700
H        3.30537100      -0.49336000       0.30472500
C        5.05519100       0.66241500       0.46623600
H        5.67404200       1.25699400      -0.20504100
H        4.63450800       1.30296000       1.24102000
H        5.64650100      -0.13668800       0.91290100
N       -2.78886100       1.79013100      -0.56762800
C       -2.60100000       3.06902700       0.16628800
C       -2.30215500       1.87976200      -1.96815100
C       -4.19607400       1.31393500      -0.50903000
H       -2.37369400       0.88963000      -2.41819300
H       -2.92829200       2.59204400      -2.50969500
H       -1.26506200       2.20938100      -1.95356500
H       -2.92629000       2.92292000       1.19680400
H       -1.54389400       3.34165800       0.14440200
H       -3.20828800       3.84070200      -0.31173600
H       -4.47142000       1.16630900       0.53451500
H       -4.84029400       2.05935200      -0.97955600
H       -4.26550000       0.35925700      -1.03016900
H       -2.23041400       1.07274800      -0.05943400
45
3sa1am1ma1tma-130
S       -1.91895700      -1.72452700      -0.85221500
O       -2.31264700      -1.32175500       0.52978500
O       -3.05764400      -1.77904800      -1.76062200
O       -0.81215700      -0.83400400      -1.33700100
O       -1.30835500      -3.17971600      -0.77831700
H       -0.47017500      -3.14133900      -0.24123100
H       -0.51232000       0.61195400      -0.58129300
S        2.02379700      -1.82173600       0.26132300
O        1.94193700      -0.48129200       0.94047000
O        0.87648900      -2.66054100       0.68337000
O        1.78673300      -1.48116500      -1.30463500
O        3.34013200      -2.41855800       0.31658000
H        2.15595700       0.88853400      -0.19084800
H        0.82391300      -1.29907000      -1.44297000
S       -1.24862200       2.49673300       0.28854400
O       -2.21958400       2.51069900      -0.83983900
O       -0.11461000       1.40976400      -0.14391800
O       -0.47524200       3.71534700       0.46408900
O       -1.86926400       1.93788300       1.51241400
N       -4.06659000       0.63540600      -0.47736900
H       -4.09866800      -0.01552700      -1.27197200
H       -3.38906400       1.43752100      -0.67521800
H       -4.99037400       0.98708400      -0.24394100
H       -3.66211100       0.09092700       0.29976100
C       -0.27465800      -0.97608600       3.62494300
N       -0.44662300      -0.32938600       2.31069400
H        0.46136600      -0.27267700       1.80315000
H       -1.08512700      -0.86856600       1.69553600
H        0.39337500      -0.37407700       4.24072300
H       -1.24359000      -1.07024100       4.11517100
H        0.16009600      -1.96304300       3.46749300
H       -0.86432100       0.61518700       2.34328700
N        2.76307500       1.57133800      -0.69192300
C        2.22274000       1.78950100      -2.05813100
C        2.75024700       2.82031500       0.11401300
C        4.11025900       0.94421800      -0.73217000
H        3.10522800       2.58342300       1.11750000
H        3.41492000       3.54855500      -0.35576300
H        1.72921500       3.20426600       0.16193300
H        2.16544700       0.82424300      -2.56127400
H        1.22941800       2.22580600      -1.97154800
H        2.89544600       2.46077200      -2.59622300
H        4.04746000       0.01708800      -1.30188900
H        4.81003000       1.63926400      -1.20043600
H        4.41754200       0.71229800       0.28687500
45
3sa1am1ma1tma-140
S       -1.73145100      -1.93037500      -0.47542200
O       -2.04041300      -1.57676600       0.92684100
O       -2.92906100      -2.03225300      -1.31507800
O       -0.71876900      -0.98246700      -1.05169200
O       -1.05270700      -3.35769600      -0.49899200
H       -0.19421800      -3.29458900       0.00044000
H       -0.36460400       0.49674400      -0.44527600
S        2.24223100      -1.80321400       0.40406800
O        2.09544700      -0.47367400       1.09674300
O        1.17848700      -2.72584100       0.85499600
O        1.92607300      -1.46389000      -1.15070900
O        3.60243700      -2.29806100       0.39952700
H        2.31160200       0.89376400      -0.07154100
H        0.94979000      -1.34612800      -1.25030400
S       -1.10007900       2.43957400       0.25661500
O       -1.66288800       1.96537800       1.54326900
O       -0.34915900       3.68465400       0.31647200
O        0.04183100       1.34453500      -0.12411300
O       -2.09788500       2.35803700      -0.84093100
H       -3.22619600       1.19860500      -0.91033800
N       -0.25544900      -0.22486100       2.48607300
H       -0.69083000       0.70684200       2.32624200
H       -0.17739200      -0.44276600       3.47438000
H       -0.87495000      -0.90907700       2.00371800
H        0.68113100      -0.27255200       2.02229600
N       -4.03878800       0.51865800      -0.90316800
H       -3.69838400      -0.42249500      -1.19244900
H       -4.71925200       0.84286600      -1.58714700
C       -4.61497400       0.45952800       0.46501100
H       -3.84826500       0.05652300       1.12467700
H       -4.88269400       1.46734000       0.77959200
H       -5.48686600      -0.19407300       0.46369900
N        2.92998200       1.57241400      -0.56280500
C        2.43196100       1.76230500      -1.94916300
C        2.87985600       2.83489900       0.22017200
C        4.28454900       0.95987000      -0.54910600
H        3.19876800       2.61770100       1.24011600
H        3.55805900       3.55856400      -0.23721100
H        1.85588800       3.21439000       0.22114200
H        2.39705500       0.78699400      -2.43465100
H        1.43325200       2.19197500      -1.90100900
H        3.11712900       2.42916500      -2.47697400
H        4.25149300       0.02022600      -1.10027800
H        4.98993400       1.65469500      -1.00923800
H        4.56261900       0.75078300       0.48308600
