24
1sa1ma1dma-181
S        1.56141700      -0.08525700      -0.07418200
O        2.74096800      -1.15491400       0.28957000
O        0.84248800       0.06372200       1.20179000
O        0.71023200      -0.77305600      -1.09214800
O        2.23373900       1.10252500      -0.58998700
H       -0.81141600      -0.86349900      -0.54307800
H        3.44293300      -1.03873200      -0.36391100
N       -1.49724000       1.79334400       0.83124000
H       -0.64327000       1.53753600       1.33062500
H       -2.09527400       2.30636800       1.47032600
C       -1.14405500       2.62208100      -0.33106600
H       -0.44776000       2.06742500      -0.96536800
H       -2.04439200       2.84328500      -0.91144400
H       -0.66017800       3.56657100      -0.05903300
N       -1.76992000      -0.80965700      -0.09691000
H       -1.81550800       0.18480000       0.28679200
C       -2.81383000      -1.01224700      -1.11409800
H       -2.68502200      -0.26968400      -1.90245000
H       -2.72103100      -2.01204300      -1.54218900
H       -3.80018300      -0.89801900      -0.65942000
C       -1.81072300      -1.75894300       1.03231200
H       -1.70527500      -2.77769300       0.65463800
H       -0.97423900      -1.52239600       1.69099600
H       -2.75970700      -1.65718800       1.56342300
24
1sa1ma1dma-84
S        1.51626800      -0.17822500      -0.02203200
O        0.88064700      -1.42476200      -0.53854800
O        1.59521000       0.87480300      -1.04764400
O        0.95641800       0.23892300       1.26570300
O        3.05274500      -0.58144800       0.32686200
H        3.53234600      -0.65397800      -0.50892200
C       -1.22461100       2.62173400       0.45389800
N       -1.26093400       1.78608200      -0.75678800
H       -0.30598600       1.67563800      -1.11102500
H       -1.63567100       0.17337100      -0.33498800
H       -0.86765500       3.64005400       0.26202500
H       -2.22552100       2.68071600       0.89220500
H       -0.54913900       2.14969100       1.17081700
H       -1.80426000       2.23714000      -1.48624600
N       -1.71994500      -0.86002700      -0.05154600
H       -0.75314000      -1.23694900      -0.22960900
C       -2.01753200      -0.94802300       1.39222800
H       -1.19805300      -0.46714900       1.92765000
H       -2.96431000      -0.44415000       1.59873900
H       -2.08499200      -1.99687500       1.68761100
C       -2.69462100      -1.53280500      -0.92558300
H       -3.68143200      -1.08579300      -0.78751500
H       -2.37870200      -1.41217000      -1.96244500
H       -2.73721000      -2.59590800      -0.68168300
24
1sa1ma1dma-105
S        1.73866300      -0.03529100       0.07367300
O        0.89706900       0.33373900       1.22051400
O        3.17946200      -0.05905000       0.25978500
O        1.19079100      -1.22369900      -0.64203400
O        1.45340700       1.22604400      -0.97403700
H        2.22735500       1.29820500      -1.54688400
C       -2.56346900       2.55314900       0.10245400
N       -1.44257700       1.61926900      -0.01514000
H       -1.56588600      -0.10560700      -0.09998100
H       -0.82805700       1.87405700      -0.78581900
H       -3.18607000       2.26874200       0.95499100
H       -2.25204600       3.59588300       0.24045000
H       -3.18362800       2.49728700      -0.79626300
H       -0.83108000       1.65417900       0.80023800
N       -1.43249700      -1.16531300      -0.09902000
H       -0.41296600      -1.28499300      -0.35818500
C       -1.62711100      -1.66738700       1.27517400
H       -0.91353800      -1.15055400       1.91800000
H       -2.65148200      -1.46667000       1.59697900
H       -1.43505100      -2.74161000       1.30122500
C       -2.29471000      -1.79146700      -1.11370600
H       -3.34389500      -1.61721400      -0.86545800
H       -2.07036300      -1.35180800      -2.08621100
H       -2.10047300      -2.86497800      -1.15007500
