18
2msa
S       -1.86364300       0.08818300       0.05588400
O       -1.61217700       1.50843800      -0.11838100
O       -1.20708500      -0.56620100       1.19611600
O       -1.50925200      -0.71196600      -1.26648800
H       -0.51587200      -0.74860200      -1.34317300
C       -3.60226500      -0.23445700       0.12896900
H       -3.97758300       0.27869600       1.01476300
H       -4.05904800       0.16812600      -0.77476100
H       -3.75095500      -1.31062300       0.20821900
S        2.04105400      -0.11953600      -0.07512000
O        1.13601000      -0.61968500      -1.12053200
O        3.43678600      -0.47289600      -0.13818900
O        1.49396300      -0.59851200       1.33833700
H        0.50294000      -0.62726100       1.34704300
C        1.86146300       1.64820300      -0.00664100
H        0.80199300       1.89073600       0.09980100
H        2.44445700       2.01150200       0.83945500
H        2.25435700       2.04317100      -0.94445300
27
3msa
S       -0.95712300       2.09914700       0.11382700
O        0.04433100       2.08630100       1.16359200
O       -2.27747800       1.52012600       0.38525600
O       -0.40285300       1.40174400      -1.18996600
H        0.52608500       1.02460200      -1.05800100
C       -1.23014000       3.76067800      -0.44456100
H       -1.90816400       3.73038300      -1.29704200
H       -1.67740000       4.30717800       0.38634700
H       -0.26660900       4.18908400      -0.71939700
S       -1.69740600      -1.89803700       0.10647800
O       -1.92176700      -3.28469700       0.43129800
O       -0.40594700      -1.27853800       0.45148300
O       -2.83102500      -1.04684400       0.80517800
H       -2.62153700      -0.07538000       0.74764700
C       -1.97139300      -1.61824500      -1.62774700
H       -1.23022800      -2.20744000      -2.16979700
H       -2.98102100      -1.95155800      -1.86728200
H       -1.83551200      -0.55407000      -1.82614900
S        2.79757400      -0.36537500      -0.13176000
O        1.98127000       0.47232000      -1.02774900
O        4.18257800      -0.56421300      -0.47794700
O        2.12846300      -1.79766500      -0.02284600
H        1.14910200      -1.71505800       0.12980700
C        2.65021400       0.28463000       1.51428700
H        3.11322300       1.27185000       1.51017500
H        1.59152600       0.36965600       1.76325600
H        3.17915100      -0.39166200       2.18544800
36
4msa
S       -3.35042900       0.16510000       0.31474500
O       -3.57417600      -1.19832100      -0.16887100
O       -2.20437500       0.13654500       1.40578200
O       -3.09115900       1.22337400      -0.64798100
H       -1.38814200       0.61537500       1.09149900
C       -4.74900700       0.58738200       1.32275500
H       -5.62364800       0.57919100       0.67147100
H       -4.84424800      -0.16531300       2.10510800
H       -4.58431000       1.57793600       1.74534100
S        3.40600800      -0.30467400       0.40896100
O        4.56079500      -1.17328100       0.47090300
O        3.96213400       1.18693000       0.25479800
O        2.39233200      -0.52121600      -0.62073500
H        3.23417200       1.78908600      -0.02581200
C        2.60150000      -0.26199500       1.99313400
H        3.35213300      -0.01596200       2.74370100
H        1.80322200       0.48045100       1.95438400
H        2.17298600      -1.25082800       2.15805700
S        0.43528800       2.26703200      -0.41432400
O        1.79036500       2.80199100      -0.32140400
O        0.30400200       1.36458700      -1.68230300
O       -0.05019600       1.55261800       0.77529000
H        0.08784000       0.41167800      -1.43686500
C       -0.67510900       3.58951400      -0.80129700
H       -0.34433400       4.04334000      -1.73547800
H       -1.67152800       3.15475700      -0.89759500
H       -0.62423200       4.30681600       0.01834800
S       -0.28282300      -2.20367900      -0.38654200
O        0.21333100      -2.14959800       0.97165100
O       -1.61812000      -3.06517400      -0.45914200
O       -0.60069600      -0.93894900      -1.06887000
H       -2.39067500      -2.44714300      -0.37699900
C        0.79290300      -3.17649400      -1.39948900
H        0.34764700      -3.26175500      -2.38991400
H        1.73937800      -2.63282700      -1.42737100
H        0.90941400      -4.15175300      -0.92685300
