20
1sa1nta2am-11
S       -1.65546200       0.02444900      -0.04918000
O       -1.63046200       1.46228700      -0.40483600
O       -2.95030900      -0.60537000       0.06774500
O       -0.92803400      -0.76861100      -1.26514300
O       -0.73707800      -0.20164500       1.12293600
H       -0.08906700      -0.30644100      -1.49419100
H       -0.09967200      -1.60093100       1.09467600
N        2.13218200      -0.00624800      -0.35443500
O        1.47865900       0.57751000      -1.24912200
O        2.43471300      -1.21296300      -0.47728000
O        2.46162000       0.62389500       0.67763000
H        1.30060900       1.87112500       0.72006300
N        0.53211400       2.58950500       0.69783500
H        0.84545000       3.39545800       0.16326900
H        0.28846400       2.86867800       1.64448500
H       -0.32291100       2.16242500       0.23044400
N        0.43680700      -2.50887600       0.85594700
H       -0.10344500      -3.01046700       0.15274200
H        0.58973300      -3.09168300       1.67365400
H        1.33765100      -2.20084200       0.43087600
20
1sa1nta2am-22
S        1.68600400      -0.17651600      -0.10205500
O        3.12284500      -0.05649400      -0.09533200
O        1.12213600      -1.46595000      -0.58396900
O        1.00645200       0.20161700       1.17967400
O        1.18349000       0.94372800      -1.17348700
H        0.22122200       1.58080100       1.18664000
H        0.26722800       0.75784100      -1.45387400
N       -2.10874800       0.10007100      -0.43611100
O       -2.37528800      -0.92171500      -1.06074000
O       -1.68923900       1.13726100      -1.03202500
O       -2.20399000       0.13399600       0.82583300
H       -1.42633800      -1.41596100       1.14772100
N       -0.40883200       2.42027500       0.99546300
H       -0.98512100       2.62611000       1.80648700
H       -1.02192800       2.10820400       0.19964100
H        0.15218500       3.22587900       0.73189400
N       -0.84908400      -2.27066600       0.98488300
H       -0.47374900      -2.62348700       1.86081100
H       -0.04278000      -1.99364400       0.33565200
H       -1.43137200      -2.96879800       0.52864200
20
1sa1nta2am-23
S        1.48669200      -0.75005100       0.10174400
O        2.71898400      -0.34901100      -0.57530600
O        1.36941100      -0.38741900       1.52136400
O        0.27916300      -0.31666800      -0.66789800
O        1.46128300      -2.36767200       0.11815100
H        1.88397100      -2.68119200      -0.69323900
N       -2.95063300      -0.10784200      -0.14436200
O       -2.45964000       0.98552500       0.14481500
O       -4.12281600      -0.37086600      -0.14565500
O       -2.12597800      -1.09625800      -0.49037200
H       -1.16259600      -0.74678000      -0.49679600
N        1.78874200       2.55435700      -0.99460500
H        1.26843100       2.52085800      -1.86677000
H        2.36039700       1.70587600      -0.97155100
H        2.41380200       3.35272800      -1.04070000
N        0.05181900       2.00399900       1.11424000
H       -0.82102400       1.64634100       0.70002200
H        0.69091100       2.35467000       0.32984000
H       -0.14747900       2.72636200       1.79953800
H        0.53375900       1.18730900       1.54403400
