56
4sa1am2eda-45
S        3.96395500      -1.19300900      -0.27428900
O        3.92703500       0.04140500      -1.08724700
O        4.29725300      -0.94132200       1.13986300
O        2.77675500      -2.03922200      -0.48037500
O        5.15992700      -2.10173400      -0.86771600
H        5.99954600      -1.65402200      -0.69351900
S       -3.80500900      -0.85179900      -0.62948200
O       -3.70892600      -2.03610400       0.25277200
O       -3.86210200       0.42626000       0.08634000
O       -2.82797400      -0.89814600      -1.73848700
O       -5.21487300      -0.99961200      -1.41773900
H       -5.93153900      -0.95689900      -0.76954700
S        1.70631700       2.67413800      -0.34122700
O        1.07670900       1.82556700       0.74005500
O        1.30180400       2.12104100      -1.65812900
O        1.47017900       4.09348000      -0.15129600
O        3.27514000       2.46503200      -0.18726200
H        3.54792000       1.57697000      -0.54041200
S       -0.83294600      -1.68878000       1.92703700
O       -0.93435200      -0.52628600       1.00048200
O       -0.47798800      -2.91417500       1.16734100
O        0.02556000      -1.44095600       3.08866900
O       -2.28195000      -1.89963900       2.54116400
H       -2.92150500      -1.96546300       1.78665900
N        2.21805600       0.19021400       2.60579600
H        2.53381600       0.66522900       3.44671900
H        1.45663800      -0.48205900       2.84007500
H        1.83726100       0.88894300       1.92608700
H        3.01884600      -0.29943400       2.15678400
C       -1.98088800       2.88777900      -0.58851800
N       -1.72177700       2.15744800       0.68114400
C       -1.80864600       4.38394600      -0.33132400
N       -2.56577700       4.74691200       0.86890100
H       -2.21827600       1.25515500       0.69687800
H       -2.08332900       2.76281700       1.43200900
H       -1.28272400       2.53290300      -1.34879700
H       -2.99976200       2.63840600      -0.89201700
H       -2.11154900       4.92978800      -1.23308300
H       -0.75048400       4.59677900      -0.15694000
H       -3.54502400       4.91647900       0.66607600
H       -2.19051800       5.57851200       1.30775400
H       -0.70643500       1.98670600       0.82487000
C        0.02995100      -2.71619900      -2.29782800
N       -1.12427500      -3.00474600      -1.40083700
C        0.21735100      -1.22147900      -2.51930300
N        0.62066600      -0.51907000      -1.28499200
H       -1.48462000      -3.94596100      -1.54406500
H       -1.89961300      -2.32087600      -1.56573000
H        0.92721600      -3.15926600      -1.85837600
H       -0.16140200      -3.18390600      -3.26542100
H       -0.69500100      -0.75846800      -2.89942200
H        1.01755100      -1.08347800      -3.24907000
H       -0.10014400      -0.51476100      -0.53495100
H        0.87965400       0.47748800      -1.48172100
H        1.45821000      -0.99336000      -0.89056900
H       -0.86424500      -2.94131100      -0.36862700
56
4sa1am2eda-19
S       -1.59110500       2.58752300      -0.99429100
O       -0.65388600       2.74473500      -2.13174200
O       -2.89633400       3.18735200      -1.13433400
O       -1.64751900       1.13803600      -0.57531200
O       -0.89288900       3.32099400       0.26533900
H        0.09080600       3.32957400       0.16136700
H       -3.09865900       0.18414200      -0.48404500
S        2.09694600       1.81152900       1.02988500
O        2.10208200       2.00507600       2.47470000
O        1.15576000       0.69495600       0.62335400
O        1.83777800       3.00165300       0.20371100
O        3.53109500       1.30915100       0.54879100
H        3.61608500       0.34411900       0.76187600
S        2.90377400      -1.97825800      -0.34405500
O        3.34427400      -1.18809900      -1.49840600
O        3.31349700      -1.38653800       0.95357900
O        1.47985200      -2.36307000      -0.37889100
O        3.64788500      -3.41596300      -0.42714800
H        4.60321200      -3.26834600      -0.38980600
S       -3.12925300      -1.57061600       0.75380000
O       -1.67906800      -1.76009000       0.42006300
O       -3.25201300      -0.81076200       2.02573500
O       -3.68538800      -0.60869000      -0.41145200
O       -3.92490500      -2.77588800       0.64793200
N       -2.74435000      -2.69002400      -2.44256500
H       -2.90455800      -3.19570000      -3.30787000
H       -3.53461500      -2.06568100      -2.29066000
H       -2.78846700      -3.36295600      -1.67938500
C       -0.14649400      -0.40942500      -3.23601300
C        1.26960900       0.14337000      -3.24315500
N        1.48691600       1.10783400      -2.13563400
N       -0.51375300      -1.06141100      -1.95956000
H       -1.34107900      -1.71725000      -2.11645600
H       -0.83401500      -0.35579500      -1.27440600
H       -0.87709900       0.38242700      -3.41735100
H       -0.22818400      -1.14840500      -4.03610500
H        1.43816900       0.66956100      -4.18459500
H        2.01167200      -0.64765300      -3.12767700
H        0.78179800       1.88729700      -2.15659200
H        2.43327000       1.48951800      -2.14555700
H        0.24693600      -1.60969900      -1.51763600
H        1.38221900       0.67756700      -1.19575600
C       -0.45662000       0.47421500       3.39519900
N       -1.24278500       0.95000600       2.22706500
C       -0.22647500      -1.03291000       3.36224800
N        0.38839100      -1.48715100       2.08501600
H       -1.45121900       1.94851100       2.28715800
H       -2.13694400       0.39707100       2.12591200
H        0.48930400       1.01972000       3.40072700
H       -1.01959700       0.71219500       4.29942300
H       -1.16608600      -1.57661700       3.48243400
H        0.44268800      -1.28435900       4.18646600
H        1.00807500      -0.77561700       1.64962400
H       -0.37362100      -1.67816400       1.38053300
H        0.93452500      -2.34143700       2.18228300
H       -0.71321100       0.85401400       1.34340100
56
4sa1am2eda-24
S       -3.67924400      -1.92366800      -0.00687200
O       -3.86118300      -1.92729900       1.45533100
O       -3.62364500      -0.55162100      -0.54767600
O       -2.57776800      -2.76395300      -0.50865900
O       -4.98659300      -2.64330000      -0.62598700
H       -5.76723600      -2.31038700      -0.16236800
S        1.06892900      -0.84890400       2.02640300
O        0.96456100      -2.31048300       1.80364600
O        1.01113800      -0.13101800       0.72022800
O        0.12755400      -0.32565600       3.02116700
O        2.49865900      -0.53479200       2.63749200
H        3.18328700      -0.74304000       1.94875000
S        4.08822100      -0.53268800      -0.72163900
O        3.83384100       0.91248400      -0.67822300
O        4.11124500      -1.18251300       0.60483100
O        3.26574400      -1.27981400      -1.69757000
O        5.57539600      -0.70463900      -1.33835400
H        6.17780700      -0.13191500      -0.84369900
S       -2.07348900       2.43532100      -0.94388700
O       -0.93239500       1.52228900      -1.29144800
O       -2.39765800       2.33189900       0.49966400
O       -1.87022400       3.79554600      -1.41722400
O       -3.33413500       1.87591900      -1.74856800
H       -3.56093200       0.98624100      -1.39834300
N       -2.49260000       0.36803600       2.38036400
H       -2.93888000       0.81462300       3.17697200
H       -3.03112000      -0.47874700       2.11136800
H       -2.47190100       1.04742800       1.58181300
H       -1.52168100       0.09691700       2.63672500
C        0.46498100       4.22988500       1.01387300
N        0.74155400       5.06873500      -0.15278400
C        1.41372400       3.02629500       1.03302200
N        1.52234000       2.49241800      -0.34552800
H        1.10920000       5.97814200       0.09185000
H       -0.09380400       5.18190200      -0.71922000
H        0.57444100       4.77287700       1.95836000
H       -0.56585700       3.86807300       0.97231600
H        1.05512700       2.22711400       1.68166700
H        2.42314100       3.31052200       1.34148300
H        0.61008400       2.13188800      -0.69706100
H        2.24796800       1.76212200      -0.42128900
H        1.75767700       3.29532200      -0.94217300
C        0.60210900      -3.32355900      -1.65676500
N        1.68288300      -3.17826700      -0.64005400
C        0.20136200      -1.98447700      -2.26444700
N       -0.50263000      -1.13911900      -1.28238200
H        2.13499200      -4.07222100      -0.45714000
H        1.34242700      -2.82674800       0.29927900
H        0.97922000      -3.96350800      -2.45655400
H       -0.25590000      -3.80964700      -1.18533400
H       -0.48121700      -2.17965100      -3.09367700
H        1.07491300      -1.44363200      -2.63464000
H       -1.32641800      -1.65808700      -0.91417800
H       -0.83337600      -0.22871900      -1.64932700
H        0.10555300      -0.84382900      -0.48225600
H        2.41165900      -2.49987700      -0.98800400
