46
1sa1msa1fa1tma1eda-1
S        1.95741000      -1.07584300      -0.95542500
O        1.88649000       0.17690600      -1.73575900
O        1.80141400      -0.79779500       0.50830800
O        1.04967600      -2.13543900      -1.41083900
O        3.41164600      -1.68257900      -1.15052900
H        4.06701800      -1.06553200      -0.73641100
S       -3.47718400       0.65476200       0.12123400
O       -3.05729900       1.88737300       0.80411300
O       -3.83000200      -0.48858900       0.97724900
O       -2.43673500       0.23299200      -0.90882000
C       -4.92576400       1.05817100      -0.84154600
H       -5.70434700       1.37442000      -0.14680900
H       -4.67243600       1.86677300      -1.52723400
H       -5.23778900       0.16885600      -1.38913600
H        5.37038800       1.49327100       1.56328700
H        2.84902700       0.19674600       1.19545900
C        4.67119000       0.79387500       1.08832800
O        3.47927300       0.85288700       1.62982800
O        5.01167600       0.07187100       0.16714100
N       -1.36641600      -2.15867000      -0.04213200
C       -1.05806600      -2.03283500       1.41331900
H       -0.47136600      -1.11767400       1.51075800
H       -1.77575000      -1.25366000      -0.36808700
H       -2.01230600      -1.89092700       1.92400700
C       -2.31956700      -3.23086800      -0.39598300
H       -2.50366800      -3.18493500      -1.46950800
H       -1.89934400      -4.20338400      -0.14152300
H       -3.24975400      -3.05471800       0.14593900
C       -0.26217400      -3.21420100       1.93872200
H       -0.82788900      -4.14946900       1.90242200
H        0.67051900      -3.33319500       1.38055000
H       -0.00476200      -3.02761500       2.98403400
H       -0.47509500      -2.26944400      -0.56672400
H       -0.78832000       2.36726900       0.98896300
H        0.54354200       1.18467400       0.92507400
H        1.40314600       3.45793700       1.55671900
H        2.08746500       2.88786200       0.03217000
H       -0.05991600       4.87135600       0.27842100
H        1.36332000       5.00654800      -0.52066300
H       -1.09258100       1.26471400      -1.00064800
H       -0.29305600       2.71423400      -1.40870800
C        0.14212100       2.09758700       0.48329700
C        1.16347100       3.22644600       0.51147600
N       -0.20037700       1.80887000      -0.93485100
N        0.63399000       4.35643000      -0.25415200
H        0.56358700       1.25670700      -1.37855300
46
1sa1msa1fa1tma1eda-2
S        1.00262800       1.13153100      -1.44479700
O        2.45818800       1.30663100      -1.51172300
O        0.74728700      -0.27362800      -2.14042900
O        0.54119400       0.93994200      -0.01346100
O        0.20141600       2.16485300      -2.09351200
H        0.73378400      -0.56748300       0.68272600
H       -1.03514900       1.48405300       0.33277000
S       -2.06974300      -1.83509100      -0.53326400
O       -2.42489600      -1.02948200       0.65856600
O       -1.01484500      -2.84321100      -0.24914100
O       -1.75241600      -0.97927400      -1.71268900
H       -0.21356100      -0.54441000      -2.04142700
C       -3.51896000      -2.76488400      -0.99677900
H       -3.79711200      -3.40174100      -0.15694700
H       -4.31714900      -2.05989900      -1.23028400
H       -3.26879000      -3.36499300      -1.87169700
H        5.44924600      -1.73006100      -0.15549400
H        3.64270600       0.21254600      -1.23513700
C        4.50743500      -1.16559400      -0.17877600
O        4.48128000      -0.33287700      -1.18084500
O        3.63492500      -1.33363400       0.65829400
N       -1.81381400       2.15485600       0.52918300
C       -2.40166900       1.81139300       1.84919800
H       -2.86038600       0.82720800       1.76688900
H       -1.59122800       1.77964400       2.58116900
H       -3.14210300       2.57141200       2.11055900
C       -1.16983100       3.49223200       0.54373200
H       -0.42957000       3.50844000       1.34393300
H       -0.67909800       3.64531300      -0.41796000
H       -1.93412100       4.25231200       0.72051800
C       -2.79232400       2.03009900      -0.58182400
H       -2.26445300       2.20306200      -1.52005100
H       -3.19018600       1.01698400      -0.56764900
H       -3.58467900       2.76807400      -0.43467100
H        2.27844200      -0.49863000       3.25932200
H        0.94092100      -0.37924500       4.40783900
H        0.56450200      -2.32458700       3.07227900
H       -0.64483500      -1.12132400       2.56934400
H        1.86922800      -1.68418600       1.09354300
H        0.28311000      -2.16368400       0.66721400
H        1.33221100       1.74764200       3.49468300
H        1.14922300       1.23492500       1.95568100
C        1.20242700      -0.28188900       3.34953000
C        0.42312700      -1.35145100       2.59638300
N        0.84685700       1.07071400       2.91508400
N        0.86761400      -1.47248600       1.18609800
46
1sa1msa1fa1tma1eda-3
S        0.79852900      -1.46960000       1.57159900
O        0.79761600      -0.16010700       2.48279300
O        0.83274300      -0.92734700       0.16010200
O        2.00874400      -2.18370000       1.93929700
O       -0.48238100      -2.17673700       1.77826000
H       -1.61570200      -1.59477100       0.62319800
S       -0.74741700       2.07492600       0.12274700
O       -1.45089500       1.33666800      -0.96235900
O        0.68497000       2.30437300      -0.13248000
O       -1.02172600       1.45594600       1.45735000
H        0.10487600       0.47753300       2.14497900
C       -1.51384300       3.68668800       0.18997200
H       -1.36033200       4.17483600      -0.77277700
H       -2.57757200       3.55581800       0.38997700
H       -1.03929100       4.25383600       0.99093200
H        0.00053000      -1.79016800      -3.99328500
H        0.26431500      -1.58612800      -1.16176000
C        0.51105200      -1.52321000      -3.05761200
O       -0.19431600      -1.88354200      -2.00631200
O        1.59273500      -0.97256700      -3.03203400
N        3.07631500       0.51644200      -0.40956700
C        3.42960000       1.18293200       0.87062800
H        2.77917400       2.04847700       0.98936200
H        3.25469800       0.48111200       1.68657900
H        4.48125500       1.47650700       0.83394600
C        3.82648000      -0.75402400      -0.59399200
H        3.60987100      -1.40897600       0.25161800
H        3.48075200      -1.21593800      -1.51844600
H        4.89365800      -0.52688100      -0.64831600
C        3.22855800       1.42411600      -1.57386500
H        2.88055500       0.89769100      -2.46198000
H        2.61264400       2.30474400      -1.40066600
H        4.28379900       1.69098200      -1.67050100
H        2.07521800       0.24077800      -0.32624400
H       -3.86400400      -1.48429900       1.34013700
H       -3.12641400       0.13257200       1.45200900
H       -5.37877500       0.26554700       0.35001900
H       -4.07451500       0.74089600      -0.74993500
H       -5.53297500      -1.79678200      -0.82626600
H       -5.19771900      -0.76320500      -2.05037900
H       -2.60770500      -1.72873100      -0.75516200
H       -1.82857400      -0.28452600      -0.43575000
C       -3.47535600      -0.63983700       0.76435900
C       -4.51339400      -0.10659200      -0.21440900
N       -2.29905100      -1.11023900      -0.00082900
N       -4.83927300      -1.15055600      -1.18649700
