34
1msa1fa1ma1tma-1
S        1.94668600      -0.74034600       0.00688600
O        1.38500700      -1.11465500      -1.29967200
O        1.34188800      -1.46530300       1.15839000
O        1.90819100       0.73924300       0.25856000
H        1.34556200       1.88134300      -0.61383900
C        3.67533200      -1.17877200      -0.00527700
H        4.15119800      -0.65046600      -0.83177800
H        4.11256000      -0.88324600       0.94826400
H        3.74785600      -2.25724500      -0.14730100
H       -0.41689500       4.08920900      -1.12183300
H       -0.52695100       1.09655200       1.19689300
C       -0.08885000       3.17821700      -0.60313200
O       -0.73033300       2.70930400       0.32733300
O        1.01428900       2.70601200      -1.10651700
N       -0.84338200       0.18154700       1.56081500
H       -1.43708200      -0.24903300       0.78110800
C       -1.60123100       0.33335300       2.81349700
H       -1.98071800      -0.63939000       3.12894400
H       -0.95206200       0.73727300       3.59069800
H       -2.43507000       1.01673500       2.64906400
H       -0.00966900      -0.43456600       1.65154300
N       -2.25516100      -0.91072600      -0.57047200
C       -1.80154600      -2.29429700      -0.72584900
H       -0.71508100      -2.30745700      -0.83975000
H       -2.07238000      -2.87063000       0.16411200
H       -2.26145000      -2.77194900      -1.60661200
C       -3.70083600      -0.83774800      -0.39467200
H       -3.99922800      -1.42484900       0.47939800
H       -4.00111200       0.20247500      -0.23666000
H       -4.24202700      -1.22611600      -1.27367300
C       -1.81757300      -0.08872100      -1.70138500
H       -2.08692900       0.95543500      -1.51680400
H       -0.73228800      -0.16803800      -1.80562200
H       -2.28952800      -0.41524100      -2.64256400
34
1msa1fa1ma1tma-2
S        1.97785600      -0.84924400       0.16208800
O        1.21364300      -1.35497600       1.33830800
O        3.16906800      -0.06567300       0.47879300
O        1.02996400      -0.13598400      -0.77465100
H        1.22885100       1.36089000      -1.14359300
C        2.49970200      -2.30158500      -0.73583900
H        3.15791700      -2.87842000      -0.08559100
H        1.61813800      -2.88478900      -1.00339100
H        3.03344000      -1.97347700      -1.62803500
H        0.70785500       4.18353100      -1.02826600
H       -0.47348000       1.28075000       1.01549000
C        0.59971800       3.13993400      -0.70451400
O       -0.10747100       2.84194600       0.24934200
O        1.28977500       2.32817600      -1.44993200
N       -0.86495300       0.43869600       1.47812800
H       -1.55911600       0.02173100       0.79691000
C       -1.48094700       0.76889500       2.77403400
H       -1.91417500      -0.13191900       3.21038800
H       -0.72231700       1.16606800       3.44858300
H       -2.26066300       1.51737400       2.62781500
H       -0.08819700      -0.25507400       1.56602500
N       -2.51555700      -0.70374200      -0.49859300
C       -3.94765700      -0.81552400      -0.25139100
H       -4.12359200      -1.42045300       0.64295400
H       -4.37513200       0.17806600      -0.08835700
H       -4.47692700      -1.28548800      -1.09773900
C       -2.23675100       0.15613300      -1.64851200
H       -2.64816300       1.15385300      -1.46965400
H       -1.15526800       0.23840500      -1.77947300
H       -2.68062300      -0.24587400      -2.57449300
C       -1.90072700      -2.01863100      -0.67558700
H       -0.82612600      -1.88851000      -0.82052400
H       -2.06176800      -2.62473400       0.22048900
H       -2.32263900      -2.55193100      -1.54372600
34
1msa1fa1ma1tma-3
S        1.89545300      -0.67573100      -0.20790500
O        1.60170100      -0.58629000      -1.64200900
O        1.23737900      -1.78477100       0.51061300
O        1.60862200       0.63337500       0.51369700
H        1.14074700       1.99280600      -0.20081000
C        3.65743200      -0.89993300      -0.03457900
H        3.92139100      -1.83660300      -0.52633200
H        4.15677800      -0.05925100      -0.51658100
H        3.89833900      -0.93960800       1.02766600
H       -0.53391100       4.28479500      -0.59846600
H       -1.25503900       1.03994000       1.86583100
C       -0.28746100       3.30333600      -0.16994200
O       -1.04856200       2.71777300       0.58284500
O        0.88224700       2.89024400      -0.57946600
N       -0.85713400       0.12706200       1.64495300
H       -1.36697200      -0.23972200       0.76890900
C       -0.91372600      -0.85955300       2.73758500
H       -0.38737600      -1.75264500       2.40026000
H       -0.42402400      -0.46156800       3.62698300
H       -1.95477100      -1.09407100       2.96600300
H        0.12328100       0.31349200       1.34226800
N       -2.18874900      -0.80902300      -0.58571500
C       -3.61906200      -0.63769900      -0.35391100
H       -3.92834500      -1.22645000       0.51559900
H       -3.83499900       0.41699700      -0.15875500
H       -4.21817100      -0.96118400      -1.22110400
C       -1.73864900       0.01187200      -1.71345500
H       -1.94203100       1.06425400      -1.49694000
H       -0.66358800      -0.12076800      -1.85939900
H       -2.26205500      -0.26584400      -2.64299000
C       -1.84332100      -2.21647300      -0.79226000
H       -0.76033500      -2.31425600      -0.89056700
H       -2.16373000      -2.80202100       0.07511300
H       -2.33363200      -2.62480800      -1.69095900
