43
3sa1dma1eda-20
S       -1.67124200       2.07907500       0.67928900
O       -2.43124100       1.69419200      -0.68580300
O       -1.05663600       3.38797400       0.36770800
O       -0.57622200       1.04789100       0.77496700
O       -2.60014900       2.02353300       1.79084300
H        1.75133800       1.74547300       0.49196300
H       -2.68545000       0.73989500      -0.64850100
S       -1.64592500      -1.81091600      -1.28294600
O       -2.67906200      -1.05449400      -0.54745700
O       -1.29760400      -1.20769800      -2.57903400
O       -0.47279700      -2.15185400      -0.44881900
O       -2.27606900      -3.26479200      -1.59417800
H       -3.03774700      -3.15108600      -2.18002200
S        2.96796600      -0.77583600       0.15247500
O        2.08059900       0.17643800       0.89909600
O        2.95134800      -0.42691000      -1.29588300
O        4.26852100      -0.98430500       0.74553600
O        2.21611500      -2.20167400       0.27860600
H        1.38060800      -2.19530700      -0.23096700
C        0.49095400      -1.48534200       3.22860000
N       -0.54711400      -1.21860700       2.21020000
C       -1.94331500      -1.34959800       2.69041300
H       -0.43910400      -0.26224400       1.80592100
H        0.40676800      -2.51945100       3.56523600
H        1.46670000      -1.30901200       2.77939500
H        0.33743600      -0.80694300       4.06897800
H       -2.08951300      -2.35065000       3.09905200
H       -2.12548700      -0.59423800       3.45511100
H       -2.60922600      -1.18355900       1.84356700
H       -0.42217600      -1.82015500       1.38129100
C        1.89101300       2.73664000      -1.36160700
N        1.63698600       2.72761000       0.10784800
C        0.74692000       2.09978900      -2.14142600
N        0.54417100       0.68949500      -1.74743700
H        0.66700200       3.06765600       0.31919000
H        2.31087500       3.31897700       0.59093300
H        1.99815800       3.77328500      -1.68550800
H        2.82669600       2.20020900      -1.53713300
H        0.99893600       2.13171900      -3.20292700
H       -0.19096800       2.63689600      -1.98258200
H        1.45400800       0.16168200      -1.72971100
H       -0.13488900       0.18186600      -2.33984800
H        0.15709600       0.65299000      -0.77934500
43
3sa1dma1eda-26
S        3.09825200      -1.72574300      -0.28414900
O        2.15678100      -2.49708700      -1.12459100
O        3.94941900      -0.80340900      -1.06567600
O        2.46671700      -1.10286400       0.88503700
O        4.10673700      -2.81825600       0.36879400
H        4.58700400      -3.25517700      -0.34801600
S       -3.68900700      -0.71506400      -0.60592800
O       -3.64757000      -1.42503300       0.70115700
O       -3.48994000       0.73559400      -0.42621400
O       -2.84883600      -1.34531300      -1.62727300
O       -5.18260500      -0.90331500      -1.18005700
H       -5.78640100      -0.36709400      -0.64740400
S       -0.46843700       2.34326400       0.29540800
O        0.25321100       1.10185000      -0.16692000
O       -1.14549400       2.06073000       1.58355100
O        0.40522700       3.50468500       0.27480400
O       -1.59771900       2.62618800      -0.78298900
H       -2.30567700       1.93682300      -0.72141300
C        3.04619800       2.76969900      -1.50314500
N        2.92791400       1.70863700      -0.47967300
C        3.39303900       2.10532100       0.86882200
H        1.92559400       1.43234600      -0.39760300
H        4.09163600       3.06922400      -1.59125300
H        2.69324400       2.37498000      -2.45601300
H        2.42382600       3.61214100      -1.20000200
H        4.44376800       2.39444800       0.81464900
H        2.78029200       2.93950700       1.21293800
H        3.27499700       1.24316800       1.52553700
H        3.43003600       0.84704300      -0.77549300
C       -0.50519700      -2.25680400       0.86342600
C       -0.43668900      -1.34880600       2.08218500
N       -1.63747400      -0.46976000       2.24545300
N       -0.33481000      -1.54104400      -0.43357500
H       -1.18453900      -1.60791600      -1.02398100
H        0.49670200      -1.92936400      -0.92268400
H        0.31638900      -2.96912800       0.94855400
H       -1.44993700      -2.80349300       0.82983900
H        0.45510400      -0.72144100       2.03409100
H       -0.36292900      -1.98908100       2.96278900
H       -2.47849400      -0.84269500       1.73486200
H       -1.45830900       0.51821400       1.89988900
H       -0.14329700      -0.52282300      -0.30306000
H       -1.88285000      -0.37044300       3.22835400
43
3sa1dma1eda-44
S       -1.62806600       2.28548000      -0.63924800
O       -0.71797000       2.64636300       0.64107900
O       -2.75969500       1.47455200      -0.15571400
O       -0.69854000       1.42173600      -1.47870800
O       -1.93493000       3.55290200      -1.25754700
H       -0.97861300      -0.12865000      -1.84199200
H        1.84713700       1.49023000       0.16512800
S        0.03321200      -2.02512500      -1.52588700
O       -0.28772000      -2.23936300      -0.07160500
O       -0.00035500      -3.23326400      -2.31489300
O        1.28172600      -1.21027600      -1.64313400
O       -1.13368800      -1.09036700      -2.07529600
H        2.65092500      -1.08153400      -0.81326200
H       -1.75096100      -1.48655500       0.55387400
S        1.10351500      -0.08279600       2.32498900
O       -0.23777900       0.29670100       1.81309400
O        2.16880700       0.72152100       1.60442800
O        1.36684200      -1.57190600       1.80148800
O        1.27312200      -0.08946300       3.75762700
H        0.71915300      -1.82261200       1.07447200
H       -0.57811700       1.82662300       1.18232600
N       -2.69276300      -1.09620900       0.75202600
H       -2.64879000      -0.09482500       0.46034800
C       -3.67718800      -1.79002300      -0.10839700
H       -3.36203400      -1.67850800      -1.14538600
H       -3.70315700      -2.84726900       0.15924200
H       -4.65883000      -1.33798600       0.03860400
C       -2.98173400      -1.17740500       2.20062900
H       -2.99815500      -2.22556700       2.50336900
H       -2.19646700      -0.64317200       2.73377100
H       -3.95199400      -0.71793100       2.39422900
N        3.44905500      -0.60875300      -0.30291600
C        3.93516600       0.57788500      -1.06197600
C        2.79775900       1.33295200      -1.74345700
N        1.80431900       1.91354300      -0.79706500
H        3.04187900      -0.28126600       0.61108400
H        4.19314200      -1.27716600      -0.11615700
H        4.62008200       0.23531300      -1.83977600
H        4.48684800       1.21592300      -0.36681700
H        2.25349000       0.66182000      -2.40917000
H        3.22975100       2.13941400      -2.33796100
H        0.80827800       1.74009700      -1.13984000
H        1.91101000       2.91905000      -0.67541400
