1sa_1goa_1w.log
 OpenBabel02281910283D
Gaussian groups/kemi/kmacke/programs/G09D/g09/g09 # opt freq wb97xd/6-31++g(d,p)
 17 14  0  0  0  0  0  0  0  0999 V2000
    3.9076   -0.6894    0.0303 C   0  0  0  0  0  0  0  0  0  0  0  0
    4.7630   -0.0706   -0.5387 O   0  0  0  0  0  0  0  0  0  0  0  0
    4.0818   -1.6490    0.5484 H   0  0  0  0  0  0  0  0  0  0  0  0
    2.4476   -0.2245    0.1133 C   0  0  0  0  0  0  0  0  0  0  0  0
    1.6496   -0.9220    0.7290 O   0  0  0  0  0  0  0  0  0  0  0  0
    2.1985    0.8959   -0.4960 O   0  0  0  0  0  0  0  0  0  0  0  0
    1.2421    1.1444   -0.4095 H   0  0  0  0  0  0  0  0  0  0  0  0
   -1.4478    0.5083    0.1637 S   0  0  0  0  0  0  0  0  0  0  0  0
   -2.7335    0.9710    0.6280 O   0  0  0  0  0  0  0  0  0  0  0  0
   -0.4002    1.4639   -0.1633 O   0  0  0  0  0  0  0  0  0  0  0  0
   -1.6313   -0.3827   -1.1259 O   0  0  0  0  0  0  0  0  0  0  0  0
   -0.9036   -0.4956    1.2474 O   0  0  0  0  0  0  0  0  0  0  0  0
   -2.5216   -0.8365   -1.0769 H   0  0  0  0  0  0  0  0  0  0  0  0
    0.0632   -0.6912    1.0751 H   0  0  0  0  0  0  0  0  0  0  0  0
   -4.0924   -1.2165   -0.6908 O   0  0  0  0  0  0  0  0  0  0  0  0
   -4.3010   -0.5147   -0.0588 H   0  0  0  0  0  0  0  0  0  0  0  0
   -4.3313   -2.0508   -0.2777 H   0  0  0  0  0  0  0  0  0  0  0  0
  1  4  1  0  0  0  0
  1  3  1  0  0  0  0
  2  1  2  0  0  0  0
  4  5  2  0  0  0  0
  6  7  1  0  0  0  0
  6  4  1  0  0  0  0
  8  9  2  0  0  0  0
  8 12  1  0  0  0  0
 10  8  2  0  0  0  0
 11 13  1  0  0  0  0
 11  8  1  0  0  0  0
 14 12  1  0  0  0  0
 15 17  1  0  0  0  0
 15 16  1  0  0  0  0
M  END
$$$$
