1sa_1goa_3w.log
 OpenBabel02281910283D
Gaussian groups/kemi/kmacke/programs/G09D/g09/g09 # opt freq wb97xd/6-31++g(d,p)
 23 18  0  0  0  0  0  0  0  0999 V2000
    4.3405   -0.7935    0.4909 C   0  0  0  0  0  0  0  0  0  0  0  0
    4.7877   -1.7657   -0.0522 O   0  0  0  0  0  0  0  0  0  0  0  0
    4.8457   -0.2689    1.3221 H   0  0  0  0  0  0  0  0  0  0  0  0
    3.0059   -0.1416    0.1025 C   0  0  0  0  0  0  0  0  0  0  0  0
    2.6608    0.8710    0.6933 O   0  0  0  0  0  0  0  0  0  0  0  0
    2.3679   -0.7575   -0.8492 O   0  0  0  0  0  0  0  0  0  0  0  0
    1.4998   -0.3250   -1.0570 H   0  0  0  0  0  0  0  0  0  0  0  0
   -1.2061    0.2520   -0.6929 S   0  0  0  0  0  0  0  0  0  0  0  0
   -2.4140   -0.2133   -1.3428 O   0  0  0  0  0  0  0  0  0  0  0  0
    0.0158    0.3486   -1.4825 O   0  0  0  0  0  0  0  0  0  0  0  0
   -0.8365   -0.6535    0.5304 O   0  0  0  0  0  0  0  0  0  0  0  0
   -1.5422    1.6455   -0.0667 O   0  0  0  0  0  0  0  0  0  0  0  0
   -1.6421   -0.8208    1.1431 H   0  0  0  0  0  0  0  0  0  0  0  0
   -0.6902    2.0967    0.2753 H   0  0  0  0  0  0  0  0  0  0  0  0
   -2.8805   -1.0794    1.9890 O   0  0  0  0  0  0  0  0  0  0  0  0
   -3.6566   -1.1751    1.3863 H   0  0  0  0  0  0  0  0  0  0  0  0
   -3.1046   -0.4105    2.6417 H   0  0  0  0  0  0  0  0  0  0  0  0
   -4.6822   -1.1294    0.0234 O   0  0  0  0  0  0  0  0  0  0  0  0
   -4.0627   -0.7840   -0.6422 H   0  0  0  0  0  0  0  0  0  0  0  0
   -5.0721   -1.9262   -0.3447 H   0  0  0  0  0  0  0  0  0  0  0  0
    0.6247    2.6946    0.7762 O   0  0  0  0  0  0  0  0  0  0  0  0
    0.9377    3.4692    0.3010 H   0  0  0  0  0  0  0  0  0  0  0  0
    1.3510    2.0359    0.7494 H   0  0  0  0  0  0  0  0  0  0  0  0
  1  3  1  0  0  0  0
  2  1  2  0  0  0  0
  4  1  1  0  0  0  0
  4  5  2  0  0  0  0
  6  4  1  0  0  0  0
  7  6  1  0  0  0  0
  8 12  1  0  0  0  0
  8 11  1  0  0  0  0
  9  8  2  0  0  0  0
 10  8  2  0  0  0  0
 11 13  1  0  0  0  0
 12 14  1  0  0  0  0
 15 17  1  0  0  0  0
 16 15  1  0  0  0  0
 19 18  1  0  0  0  0
 20 18  1  0  0  0  0
 22 21  1  0  0  0  0
 23 21  1  0  0  0  0
M  END
$$$$
