1sa_1a_1goa_1w.log
 OpenBabel02281910283D
Gaussian groups/kemi/kmacke/programs/G09D/g09/g09 # opt freq wb97xd/6-31++g(d,p)
 21 17  0  0  0  0  0  0  0  0999 V2000
    4.2573    0.6067    0.5057 C   0  0  0  0  0  0  0  0  0  0  0  0
    5.1234   -0.2245    0.5168 O   0  0  0  0  0  0  0  0  0  0  0  0
    4.4147    1.6577    0.8096 H   0  0  0  0  0  0  0  0  0  0  0  0
    2.8119    0.3244    0.0747 C   0  0  0  0  0  0  0  0  0  0  0  0
    2.0000    1.2391    0.1539 O   0  0  0  0  0  0  0  0  0  0  0  0
    2.5964   -0.8857   -0.3397 O   0  0  0  0  0  0  0  0  0  0  0  0
    1.6405   -1.0129   -0.6207 H   0  0  0  0  0  0  0  0  0  0  0  0
   -0.9843   -0.4119   -0.4555 S   0  0  0  0  0  0  0  0  0  0  0  0
   -2.2861   -0.4897   -1.1316 O   0  0  0  0  0  0  0  0  0  0  0  0
    0.1132   -1.1338   -1.1161 O   0  0  0  0  0  0  0  0  0  0  0  0
   -1.0907   -0.7628    0.9934 O   0  0  0  0  0  0  0  0  0  0  0  0
   -0.6217    1.1488   -0.5096 O   0  0  0  0  0  0  0  0  0  0  0  0
   -2.5396   -0.6420    1.4933 H   0  0  0  0  0  0  0  0  0  0  0  0
    0.3298    1.2605   -0.2565 H   0  0  0  0  0  0  0  0  0  0  0  0
   -3.5935   -0.5044    1.6964 N   0  0  0  0  0  0  0  0  0  0  0  0
   -4.0949   -1.3436    1.4142 H   0  0  0  0  0  0  0  0  0  0  0  0
   -3.9083    0.2965    1.0927 H   0  0  0  0  0  0  0  0  0  0  0  0
   -3.7604   -0.3162    2.6809 H   0  0  0  0  0  0  0  0  0  0  0  0
   -4.1164    1.3071   -0.2609 O   0  0  0  0  0  0  0  0  0  0  0  0
   -3.4853    0.8152   -0.8283 H   0  0  0  0  0  0  0  0  0  0  0  0
   -3.8532    2.2302   -0.3027 H   0  0  0  0  0  0  0  0  0  0  0  0
  1  2  2  0  0  0  0
  1  3  1  0  0  0  0
  4  5  2  0  0  0  0
  4  1  1  0  0  0  0
  6  4  1  0  0  0  0
  7  6  1  0  0  0  0
  8 11  1  0  0  0  0
  9  8  2  0  0  0  0
 10  8  2  0  0  0  0
 12  8  1  0  0  0  0
 12 14  1  0  0  0  0
 13 15  1  0  0  0  0
 15 18  1  0  0  0  0
 16 15  1  0  0  0  0
 17 15  1  0  0  0  0
 20 19  1  0  0  0  0
 21 19  1  0  0  0  0
M  RAD  1  11   2
M  END
$$$$
