2sa_1goa_6w.log
 OpenBabel02281910283D
Gaussian groups/kemi/kmacke/programs/G09D/g09/g09 # opt freq wb97xd/6-31++g(d,p)
 39 28  0  0  0  0  0  0  0  0999 V2000
   -6.1178   -0.2692   -0.9971 C   0  0  0  0  0  0  0  0  0  0  0  0
   -7.0776   -0.4888   -0.3120 O   0  0  0  0  0  0  0  0  0  0  0  0
   -6.1450   -0.2260   -2.1003 H   0  0  0  0  0  0  0  0  0  0  0  0
   -4.7167   -0.0178   -0.4236 C   0  0  0  0  0  0  0  0  0  0  0  0
   -3.7969    0.1834   -1.2101 O   0  0  0  0  0  0  0  0  0  0  0  0
   -4.6454   -0.0438    0.8720 O   0  0  0  0  0  0  0  0  0  0  0  0
   -3.7180    0.1396    1.1880 H   0  0  0  0  0  0  0  0  0  0  0  0
   -0.9866    0.1876    0.7929 S   0  0  0  0  0  0  0  0  0  0  0  0
    0.2304    0.9461    1.1845 O   0  0  0  0  0  0  0  0  0  0  0  0
   -2.1603    0.5305    1.6028 O   0  0  0  0  0  0  0  0  0  0  0  0
   -0.7224   -1.2601    0.6877 O   0  0  0  0  0  0  0  0  0  0  0  0
   -1.2714    0.7193   -0.6944 O   0  0  0  0  0  0  0  0  0  0  0  0
   -0.0895   -2.1566   -0.8978 H   0  0  0  0  0  0  0  0  0  0  0  0
   -2.2225    0.5200   -0.9373 H   0  0  0  0  0  0  0  0  0  0  0  0
    3.2516   -0.1893   -0.4042 S   0  0  0  0  0  0  0  0  0  0  0  0
    2.1400   -0.1792   -1.3928 O   0  0  0  0  0  0  0  0  0  0  0  0
    4.0598   -1.4136   -0.4461 O   0  0  0  0  0  0  0  0  0  0  0  0
    2.5433   -0.2613    1.0419 O   0  0  0  0  0  0  0  0  0  0  0  0
    4.0291    1.0617   -0.4326 O   0  0  0  0  0  0  0  0  0  0  0  0
    1.6778    0.2325    1.0397 H   0  0  0  0  0  0  0  0  0  0  0  0
    3.2278    2.4443   -0.4347 H   0  0  0  0  0  0  0  0  0  0  0  0
    0.5943   -2.4449   -1.5286 O   0  0  0  0  0  0  0  0  0  0  0  0
    1.0611   -1.6147   -1.7478 H   0  0  0  0  0  0  0  0  0  0  0  0
    1.6547   -3.1569   -0.7959 H   0  0  0  0  0  0  0  0  0  0  0  0
    2.5700    3.2066   -0.5045 O   0  0  0  0  0  0  0  0  0  0  0  0
    2.1259    3.3644    0.3902 H   0  0  0  0  0  0  0  0  0  0  0  0
    1.8240    2.8786   -1.1605 H   0  0  0  0  0  0  0  0  0  0  0  0
    2.4241   -3.4636   -0.1569 O   0  0  0  0  0  0  0  0  0  0  0  0
    2.0446   -3.2807    0.7758 H   0  0  0  0  0  0  0  0  0  0  0  0
    3.1688   -2.8051   -0.2918 H   0  0  0  0  0  0  0  0  0  0  0  0
    1.1472    3.4513    1.6070 O   0  0  0  0  0  0  0  0  0  0  0  0
    1.3940    3.7003    2.5010 H   0  0  0  0  0  0  0  0  0  0  0  0
    0.6311    2.6225    1.6493 H   0  0  0  0  0  0  0  0  0  0  0  0
    0.8750    2.1556   -2.0057 O   0  0  0  0  0  0  0  0  0  0  0  0
    1.2924    1.2703   -2.0270 H   0  0  0  0  0  0  0  0  0  0  0  0
    0.0065    1.9906   -1.6075 H   0  0  0  0  0  0  0  0  0  0  0  0
    1.3601   -2.6928    2.0343 O   0  0  0  0  0  0  0  0  0  0  0  0
    1.9247   -1.9316    2.2299 H   0  0  0  0  0  0  0  0  0  0  0  0
    0.5142   -2.2938    1.7591 H   0  0  0  0  0  0  0  0  0  0  0  0
  1  4  1  0  0  0  0
  1  2  2  0  0  0  0
  3  1  1  0  0  0  0
  4  6  1  0  0  0  0
  5  4  2  0  0  0  0
  6  7  1  0  0  0  0
  8  9  2  0  0  0  0
  8 10  1  0  0  0  0
 11  8  2  0  0  0  0
 12  8  1  0  0  0  0
 14 12  1  0  0  0  0
 15 18  1  0  0  0  0
 16 15  2  0  0  0  0
 17 15  2  0  0  0  0
 19 15  1  0  0  0  0
 20 18  1  0  0  0  0
 22 13  1  0  0  0  0
 23 22  1  0  0  0  0
 25 21  1  0  0  0  0
 25 26  1  0  0  0  0
 28 29  1  0  0  0  0
 30 28  1  0  0  0  0
 31 33  1  0  0  0  0
 31 32  1  0  0  0  0
 34 36  1  0  0  0  0
 35 34  1  0  0  0  0
 37 38  1  0  0  0  0
 39 37  1  0  0  0  0
M  RAD  4  10   2  19   2  24   2  27   2
M  END
$$$$
