2sa_1goa_3w.log
 OpenBabel02281910283D
Gaussian groups/kemi/kmacke/programs/G09D/g09/g09 # opt freq wb97xd/6-31++g(d,p)
 30 23  0  0  0  0  0  0  0  0999 V2000
    5.8656    0.2888   -1.0198 C   0  0  0  0  0  0  0  0  0  0  0  0
    6.8290    0.5589   -0.3580 O   0  0  0  0  0  0  0  0  0  0  0  0
    5.8804    0.1992   -2.1207 H   0  0  0  0  0  0  0  0  0  0  0  0
    4.4766    0.0331   -0.4196 C   0  0  0  0  0  0  0  0  0  0  0  0
    3.5495   -0.2050   -1.1863 O   0  0  0  0  0  0  0  0  0  0  0  0
    4.4237    0.0967    0.8760 O   0  0  0  0  0  0  0  0  0  0  0  0
    3.5053   -0.0968    1.2100 H   0  0  0  0  0  0  0  0  0  0  0  0
    0.7657   -0.2215    0.8573 S   0  0  0  0  0  0  0  0  0  0  0  0
   -0.4346   -0.9923    1.2731 O   0  0  0  0  0  0  0  0  0  0  0  0
    1.9597   -0.5194    1.6473 O   0  0  0  0  0  0  0  0  0  0  0  0
    0.4866    1.2354    0.7713 O   0  0  0  0  0  0  0  0  0  0  0  0
    1.0150   -0.7420   -0.6290 O   0  0  0  0  0  0  0  0  0  0  0  0
   -0.4426    1.8549   -0.1741 H   0  0  0  0  0  0  0  0  0  0  0  0
    1.9604   -0.5484   -0.8874 H   0  0  0  0  0  0  0  0  0  0  0  0
   -3.4051   -0.2824   -0.3279 S   0  0  0  0  0  0  0  0  0  0  0  0
   -2.3606   -0.0466   -1.3371 O   0  0  0  0  0  0  0  0  0  0  0  0
   -4.6162    0.5006   -0.4056 O   0  0  0  0  0  0  0  0  0  0  0  0
   -2.7934    0.0104    1.0921 O   0  0  0  0  0  0  0  0  0  0  0  0
   -3.7539   -1.7930   -0.3390 O   0  0  0  0  0  0  0  0  0  0  0  0
   -1.8581   -0.3627    1.1980 H   0  0  0  0  0  0  0  0  0  0  0  0
   -2.8854   -2.3419   -0.4029 H   0  0  0  0  0  0  0  0  0  0  0  0
   -1.1435    2.1993   -0.8569 O   0  0  0  0  0  0  0  0  0  0  0  0
   -1.5378    1.3694   -1.2512 H   0  0  0  0  0  0  0  0  0  0  0  0
   -1.9247    2.6434   -0.3846 H   0  0  0  0  0  0  0  0  0  0  0  0
   -1.4819   -2.9556   -0.4177 O   0  0  0  0  0  0  0  0  0  0  0  0
   -0.9404   -2.4967    0.2517 H   0  0  0  0  0  0  0  0  0  0  0  0
   -1.0308   -2.7915   -1.2534 H   0  0  0  0  0  0  0  0  0  0  0  0
   -3.3277    3.0490    0.2205 O   0  0  0  0  0  0  0  0  0  0  0  0
   -3.3536    3.1416    1.1781 H   0  0  0  0  0  0  0  0  0  0  0  0
   -4.0079    2.3889   -0.0009 H   0  0  0  0  0  0  0  0  0  0  0  0
  1  4  1  0  0  0  0
  1  2  2  0  0  0  0
  3  1  1  0  0  0  0
  4  6  1  0  0  0  0
  5  4  2  0  0  0  0
  6  7  1  0  0  0  0
  8  9  2  0  0  0  0
  8 10  1  0  0  0  0
 11  8  2  0  0  0  0
 12  8  1  0  0  0  0
 14 12  1  0  0  0  0
 15 18  1  0  0  0  0
 16 15  2  0  0  0  0
 17 15  2  0  0  0  0
 18 20  1  0  0  0  0
 19 15  1  0  0  0  0
 21 19  1  0  0  0  0
 22 24  1  0  0  0  0
 23 22  1  0  0  0  0
 25 26  1  0  0  0  0
 27 25  1  0  0  0  0
 28 29  1  0  0  0  0
 30 28  1  0  0  0  0
M  RAD  2  10   2  13   2
M  END
$$$$
