36
2sa1dma1eda-45
S        0.75885400      -1.72672900      -0.66454300
O        0.61931700      -1.02961100       0.65789100
O        2.05070100      -2.35372200      -0.87560600
O       -0.44045400      -2.56249100      -0.90161800
O        0.71623200      -0.53524400      -1.75679400
H       -0.13105600      -0.03468000      -1.66165000
H       -1.64954200      -1.86761500       0.04410900
S       -1.53788400       1.85509800      -0.14202900
O       -0.30513400       2.66441800      -0.10708200
O       -1.55289900       0.86728000      -1.24585300
O       -1.94253500       1.27722100       1.14656900
O       -2.73722100       2.89867000      -0.46388500
H       -2.49519100       3.40372100      -1.25215200
N       -2.33192900      -1.46544900       0.73190400
H       -2.03910300      -0.48404700       0.90310100
C       -3.68253000      -1.44604200       0.13607100
H       -3.64128900      -0.84130100      -0.76990600
H       -3.98433000      -2.46627400      -0.10557800
H       -4.38350400      -1.00243700       0.84471700
C       -2.21150200      -2.22665600       1.99126500
H       -2.49725600      -3.26419600       1.81212900
H       -1.16986200      -2.17885700       2.30845400
H       -2.86084600      -1.78212000       2.74723600
C        4.08469100       0.29292400       0.12453600
N        4.55931000       0.67492000       1.45769200
C        2.99008500       1.25970800      -0.31217200
N        1.95029300       1.29650500       0.74696300
H        5.30061500       1.36528000       1.40975100
H        4.91825600      -0.12332200       1.96681000
H        4.87008900       0.28077500      -0.64106000
H        3.66323800      -0.71628200       0.16608600
H        2.51427100       0.93141900      -1.23720000
H        3.37653800       2.27506900      -0.43871500
H        1.46413400       0.35905500       0.79973200
H        1.20231800       1.98463700       0.54471900
H        2.41476000       1.47365200       1.64147700
36
2sa1dma1eda-113
S       -1.53886300       1.85133300      -0.16021300
O       -1.97052800       1.29252300       1.13748800
O       -0.31712300       2.67303100      -0.06065600
O       -1.53738200       0.84780300      -1.23744800
O       -2.70503100       2.87375900      -0.63801300
H       -2.66002300       3.66250200      -0.08082400
S        0.76743000      -1.73969200      -0.63669200
O       -0.43280400      -2.57355200      -0.87449100
O        0.61865200      -1.02510300       0.67515000
O        2.05887800      -2.37337200      -0.82864400
O        0.73943700      -0.56175300      -1.74515000
H       -0.10680600      -0.05975700      -1.66629900
C       -2.24347300      -2.21687500       1.98175000
N       -2.34299800      -1.45498800       0.72117900
C       -3.68161500      -1.44016300       0.09852600
H       -2.05675900      -0.47248000       0.89790700
H       -2.52221300      -3.25523400       1.79649300
H       -1.20793600      -2.16620500       2.31813300
H       -2.90810100      -1.77546800       2.72622900
H       -3.97362400      -2.46117900      -0.15162000
H       -4.39881900      -1.00189600       0.79417800
H       -3.62468900      -0.83294800      -0.80505100
H       -1.64759900      -1.85664400       0.04641900
C        4.08400900       0.30991600       0.09635600
N        4.56922300       0.68456800       1.42797900
C        2.98147700       1.27516300      -0.32358900
N        1.95192000       1.30027500       0.74591000
H        5.30928500       1.37609700       1.37779200
H        4.93370400      -0.11641700       1.92882800
H        4.86270500       0.30674700      -0.67609500
H        3.66747100      -0.70156200       0.13477700
H        2.49878700       0.95083300      -1.24628800
H        3.36224700       2.29303600      -0.44690000
H        1.46973700       0.36075300       0.80038100
H        1.19788000       1.98573400       0.55641800
H        2.42546100       1.47391100       1.63637600
36
2sa1dma1eda-163
S       -1.23324900       1.99159600       0.07020100
O        0.09100000       2.62373800       0.23976100
O       -2.38428800       2.88174700       0.01126900
O       -1.21645300       1.23973900      -1.35741700
O       -1.39385200       0.86434300       1.06542500
H       -0.16610000      -0.25532300       1.27795100
H       -0.48488200       0.56808700      -1.35835300
S        0.61796000      -1.65486000      -0.16380700
O       -0.65715400      -2.37428300      -0.38884700
O        1.81643800      -2.47620900      -0.07804400
O        0.75733500      -0.50413500      -1.11587000
O        0.51287600      -0.97498700       1.29898800
C       -3.59971000      -1.94523900       1.15271500
N       -2.95139000      -1.13175300       0.10326500
C       -3.83747900      -0.72972100      -1.01098000
H       -2.52362100      -0.27845100       0.53558700
H       -3.99532600      -2.85956800       0.70832400
H       -2.85205200      -2.19845800       1.90439800
H       -4.40710600      -1.37008400       1.60773600
H       -4.20263800      -1.62227500      -1.52107200
H       -4.67410400      -0.15560800      -0.61073100
H       -3.26218800      -0.10435700      -1.69371700
H       -2.11482400      -1.64866600      -0.24813100
C        3.16842000       0.94155400       0.87833300
N        2.48028100       1.50228400      -0.31574800
C        4.44642700       0.21809400       0.45852400
N        4.17448100      -0.61491100      -0.70176800
H        3.05986200       2.17887600      -0.80893900
H        1.55576500       1.93964000      -0.06658400
H        3.37090100       1.75519600       1.57729800
H        2.45641600       0.25284200       1.33873100
H        4.82150300      -0.32096600       1.34117500
H        5.21099000       0.95498300       0.18252000
H        3.56185100      -1.40053300      -0.47691000
H        5.02628800      -0.97890500      -1.10922600
H        2.26712700       0.71868900      -0.95627300
