1msa_2w.log
 OpenBabel11151907403D
Gaussian 09 #p opt freq wB97XD/6-31++G(d,p) iop(5/13=1) iop(1/11=1)
 15 12  0  0  0  0  0  0  0  0999 V2000
   -0.8561   -0.0856   -0.1212 S   0  0  0  0  0  0  0  0  0  0  0  0
   -0.1712   -1.3182    0.2837 O   0  0  0  0  0  0  0  0  0  0  0  0
   -0.8295    0.2621   -1.5326 O   0  0  0  0  0  0  0  0  0  0  0  0
   -0.3353    1.1227    0.7568 O   0  0  0  0  0  0  0  0  0  0  0  0
    0.6374    1.3188    0.5289 H   0  0  0  0  0  0  0  0  0  0  0  0
   -2.5288   -0.1570    0.4654 C   0  0  0  0  0  0  0  0  0  0  0  0
   -3.0095   -0.9825   -0.0603 H   0  0  0  0  0  0  0  0  0  0  0  0
   -2.5103   -0.3389    1.5393 H   0  0  0  0  0  0  0  0  0  0  0  0
   -3.0152    0.7891    0.2301 H   0  0  0  0  0  0  0  0  0  0  0  0
    2.1405    1.4447    0.1053 O   0  0  0  0  0  0  0  0  0  0  0  0
    2.5075    0.5312    0.0794 H   0  0  0  0  0  0  0  0  0  0  0  0
    2.2576    1.8186   -0.7726 H   0  0  0  0  0  0  0  0  0  0  0  0
    2.6101   -1.2099    0.1309 O   0  0  0  0  0  0  0  0  0  0  0  0
    1.6701   -1.4649    0.1818 H   0  0  0  0  0  0  0  0  0  0  0  0
    3.0170   -1.7712   -0.5328 H   0  0  0  0  0  0  0  0  0  0  0  0
  1  2  2  0  0  0  0
  1  6  1  0  0  0  0
  1  4  1  0  0  0  0
  3  1  2  0  0  0  0
  5  4  1  0  0  0  0
  6  8  1  0  0  0  0
  7  6  1  0  0  0  0
  9  6  1  0  0  0  0
 11 10  1  0  0  0  0
 12 10  1  0  0  0  0
 13 14  1  0  0  0  0
 15 13  1  0  0  0  0
M  END
$$$$
