1msa_2mea_3w.log
 OpenBabel11151907403D
Gaussian 09 #p opt freq wB97XD/6-31++G(d,p) iop(5/13=1) iop(1/11=1)
 40 34  0  0  0  0  0  0  0  0999 V2000
   -1.3235    0.8798    1.5880 N   0  0  0  0  0  0  0  0  0  0  0  0
   -0.7782    1.9925    2.3672 C   0  0  0  0  0  0  0  0  0  0  0  0
   -2.3354    0.8282    1.6625 H   0  0  0  0  0  0  0  0  0  0  0  0
   -0.9523   -0.0096    1.9182 H   0  0  0  0  0  0  0  0  0  0  0  0
   -1.0811    2.9313    1.8897 H   0  0  0  0  0  0  0  0  0  0  0  0
   -1.1556    2.0101    3.4010 H   0  0  0  0  0  0  0  0  0  0  0  0
    0.7422    1.9327    2.4268 C   0  0  0  0  0  0  0  0  0  0  0  0
    1.1029    2.7644    3.0419 H   0  0  0  0  0  0  0  0  0  0  0  0
    1.0558    0.9982    2.9117 H   0  0  0  0  0  0  0  0  0  0  0  0
    1.3430    2.0373    1.1513 O   0  0  0  0  0  0  0  0  0  0  0  0
    1.6053    1.1492    0.8443 H   0  0  0  0  0  0  0  0  0  0  0  0
    1.2387   -1.6090    0.0572 S   0  0  0  0  0  0  0  0  0  0  0  0
    0.4281   -1.6107   -1.1815 O   0  0  0  0  0  0  0  0  0  0  0  0
    0.4283   -1.7973    1.2882 O   0  0  0  0  0  0  0  0  0  0  0  0
    2.1222   -0.4059    0.1552 O   0  0  0  0  0  0  0  0  0  0  0  0
   -1.1308    0.9097   -0.1633 H   0  0  0  0  0  0  0  0  0  0  0  0
    2.3421   -3.0046   -0.0468 C   0  0  0  0  0  0  0  0  0  0  0  0
    1.7386   -3.9100   -0.1133 H   0  0  0  0  0  0  0  0  0  0  0  0
    2.9549   -2.8862   -0.9406 H   0  0  0  0  0  0  0  0  0  0  0  0
    2.9597   -3.0159    0.8513 H   0  0  0  0  0  0  0  0  0  0  0  0
   -0.9468    0.8763   -1.2106 N   0  0  0  0  0  0  0  0  0  0  0  0
   -2.1963    0.8931   -2.0007 C   0  0  0  0  0  0  0  0  0  0  0  0
   -0.3173    1.6833   -1.4273 H   0  0  0  0  0  0  0  0  0  0  0  0
   -0.4188    0.0009   -1.3712 H   0  0  0  0  0  0  0  0  0  0  0  0
   -2.7294    1.8183   -1.7690 H   0  0  0  0  0  0  0  0  0  0  0  0
   -1.9351    0.8972   -3.0627 H   0  0  0  0  0  0  0  0  0  0  0  0
   -3.0698   -0.3095   -1.6703 C   0  0  0  0  0  0  0  0  0  0  0  0
   -3.9321   -0.2986   -2.3490 H   0  0  0  0  0  0  0  0  0  0  0  0
   -2.5068   -1.2339   -1.8583 H   0  0  0  0  0  0  0  0  0  0  0  0
   -3.5193   -0.2517   -0.3386 O   0  0  0  0  0  0  0  0  0  0  0  0
   -3.1313   -0.9920    0.1658 H   0  0  0  0  0  0  0  0  0  0  0  0
    0.8798    2.9399   -1.4495 O   0  0  0  0  0  0  0  0  0  0  0  0
    1.6638    2.4835   -1.8105 H   0  0  0  0  0  0  0  0  0  0  0  0
    1.0436    2.9515   -0.4897 H   0  0  0  0  0  0  0  0  0  0  0  0
   -2.2673   -2.1913    1.1105 O   0  0  0  0  0  0  0  0  0  0  0  0
   -2.5241   -3.1141    1.1572 H   0  0  0  0  0  0  0  0  0  0  0  0
   -1.2879   -2.1610    1.1231 H   0  0  0  0  0  0  0  0  0  0  0  0
    2.9104    1.1289   -2.0311 O   0  0  0  0  0  0  0  0  0  0  0  0
    3.8455    1.3284   -1.9471 H   0  0  0  0  0  0  0  0  0  0  0  0
    2.6994    0.4997   -1.3145 H   0  0  0  0  0  0  0  0  0  0  0  0
  1  3  1  0  0  0  0
  1  4  1  0  0  0  0
  1  2  1  0  0  0  0
  2  7  1  0  0  0  0
  2  6  1  0  0  0  0
  5  2  1  0  0  0  0
  7  9  1  0  0  0  0
  7  8  1  0  0  0  0
 10  7  1  0  0  0  0
 11 10  1  0  0  0  0
 12 15  2  0  0  0  0
 12 14  1  0  0  0  0
 13 12  2  0  0  0  0
 17 12  1  0  0  0  0
 17 20  1  0  0  0  0
 18 17  1  0  0  0  0
 19 17  1  0  0  0  0
 21 16  1  0  0  0  0
 22 25  1  0  0  0  0
 22 27  1  0  0  0  0
 22 21  1  0  0  0  0
 23 21  1  0  0  0  0
 24 21  1  0  0  0  0
 26 22  1  0  0  0  0
 27 30  1  0  0  0  0
 28 27  1  0  0  0  0
 29 27  1  0  0  0  0
 30 31  1  0  0  0  0
 32 34  1  0  0  0  0
 33 32  1  0  0  0  0
 35 37  1  0  0  0  0
 35 36  1  0  0  0  0
 38 39  1  0  0  0  0
 38 40  1  0  0  0  0
M  RAD  1  14   2
M  END
$$$$
