1msa_1mea_2w.log
 OpenBabel11151907403D
Gaussian 09 #p opt freq wB97XD/6-31++G(d,p) iop(5/13=1) iop(1/11=1)
 26 22  0  0  0  0  0  0  0  0999 V2000
    1.7061    0.1650   -0.6248 N   0  0  0  0  0  0  0  0  0  0  0  0
    2.1856    1.5627   -0.7172 C   0  0  0  0  0  0  0  0  0  0  0  0
    2.3399   -0.5501   -1.0069 H   0  0  0  0  0  0  0  0  0  0  0  0
    0.7518    0.0620   -1.0565 H   0  0  0  0  0  0  0  0  0  0  0  0
    3.1584    1.6163   -0.2233 H   0  0  0  0  0  0  0  0  0  0  0  0
    2.3009    1.8263   -1.7710 H   0  0  0  0  0  0  0  0  0  0  0  0
    1.1725    2.4693   -0.0193 C   0  0  0  0  0  0  0  0  0  0  0  0
    1.5856    3.4836    0.0240 H   0  0  0  0  0  0  0  0  0  0  0  0
    0.2433    2.4972   -0.6010 H   0  0  0  0  0  0  0  0  0  0  0  0
    0.9350    1.9922    1.2820 O   0  0  0  0  0  0  0  0  0  0  0  0
    0.0193    1.6516    1.3138 H   0  0  0  0  0  0  0  0  0  0  0  0
   -1.7003   -0.1941   -0.1077 S   0  0  0  0  0  0  0  0  0  0  0  0
   -1.4143   -1.5255    0.4898 O   0  0  0  0  0  0  0  0  0  0  0  0
   -0.9102    0.0410   -1.3551 O   0  0  0  0  0  0  0  0  0  0  0  0
   -1.5628    0.9209    0.8589 O   0  0  0  0  0  0  0  0  0  0  0  0
    1.5752   -0.0985    0.3650 H   0  0  0  0  0  0  0  0  0  0  0  0
   -3.4088   -0.2320   -0.6072 C   0  0  0  0  0  0  0  0  0  0  0  0
   -3.6504    0.7310   -1.0566 H   0  0  0  0  0  0  0  0  0  0  0  0
   -3.5345   -1.0397   -1.3281 H   0  0  0  0  0  0  0  0  0  0  0  0
   -4.0131   -0.4073    0.2828 H   0  0  0  0  0  0  0  0  0  0  0  0
    1.0843   -1.7726    1.3875 O   0  0  0  0  0  0  0  0  0  0  0  0
    1.1119   -1.7524    2.3469 H   0  0  0  0  0  0  0  0  0  0  0  0
    0.1282   -1.7697    1.1275 H   0  0  0  0  0  0  0  0  0  0  0  0
    2.9101   -2.3417   -0.5849 O   0  0  0  0  0  0  0  0  0  0  0  0
    2.9036   -3.1732   -1.0634 H   0  0  0  0  0  0  0  0  0  0  0  0
    2.3104   -2.4418    0.1789 H   0  0  0  0  0  0  0  0  0  0  0  0
  1 16  1  0  0  0  0
  2  1  1  0  0  0  0
  2  5  1  0  0  0  0
  2  7  1  0  0  0  0
  3  1  1  0  0  0  0
  4  1  1  0  0  0  0
  6  2  1  0  0  0  0
  7  8  1  0  0  0  0
  7 10  1  0  0  0  0
  9  7  1  0  0  0  0
 10 11  1  0  0  0  0
 12 13  2  0  0  0  0
 12 15  1  0  0  0  0
 14 12  2  0  0  0  0
 17 12  1  0  0  0  0
 17 20  1  0  0  0  0
 18 17  1  0  0  0  0
 19 17  1  0  0  0  0
 21 22  1  0  0  0  0
 23 21  1  0  0  0  0
 24 26  1  0  0  0  0
 25 24  1  0  0  0  0
M  RAD  1  15   2
M  END
$$$$
