1msa_1mea_1w.log
 OpenBabel11151907403D
Gaussian 09 #p opt freq wB97XD/6-31++G(d,p) iop(5/13=1) iop(1/11=1)
 23 20  0  0  0  0  0  0  0  0999 V2000
    1.6829    0.3393    1.3193 N   0  0  0  0  0  0  0  0  0  0  0  0
    2.6739   -0.6029    0.7324 C   0  0  0  0  0  0  0  0  0  0  0  0
    1.9822    0.6914    2.2255 H   0  0  0  0  0  0  0  0  0  0  0  0
    0.7258   -0.1087    1.4127 H   0  0  0  0  0  0  0  0  0  0  0  0
    3.5571   -0.0243    0.4497 H   0  0  0  0  0  0  0  0  0  0  0  0
    2.9561   -1.3351    1.4933 H   0  0  0  0  0  0  0  0  0  0  0  0
    2.0832   -1.3126   -0.4817 C   0  0  0  0  0  0  0  0  0  0  0  0
    2.8603   -1.9693   -0.8922 H   0  0  0  0  0  0  0  0  0  0  0  0
    1.2409   -1.9386   -0.1635 H   0  0  0  0  0  0  0  0  0  0  0  0
    1.6689   -0.3860   -1.4556 O   0  0  0  0  0  0  0  0  0  0  0  0
    0.6998   -0.4921   -1.5670 H   0  0  0  0  0  0  0  0  0  0  0  0
   -1.4928   -0.0906    0.0296 S   0  0  0  0  0  0  0  0  0  0  0  0
   -1.4335    1.3903    0.0330 O   0  0  0  0  0  0  0  0  0  0  0  0
   -0.7996   -0.6815    1.2215 O   0  0  0  0  0  0  0  0  0  0  0  0
   -1.0165   -0.6938   -1.2401 O   0  0  0  0  0  0  0  0  0  0  0  0
    1.5334    1.1675    0.6737 H   0  0  0  0  0  0  0  0  0  0  0  0
   -3.2070   -0.5405    0.1935 C   0  0  0  0  0  0  0  0  0  0  0  0
   -3.2738   -1.6282    0.2144 H   0  0  0  0  0  0  0  0  0  0  0  0
   -3.5850   -0.1087    1.1200 H   0  0  0  0  0  0  0  0  0  0  0  0
   -3.7391   -0.1361   -0.6675 H   0  0  0  0  0  0  0  0  0  0  0  0
    1.1192    2.3259   -0.4396 O   0  0  0  0  0  0  0  0  0  0  0  0
    1.3909    1.8478   -1.2344 H   0  0  0  0  0  0  0  0  0  0  0  0
    0.1469    2.2044   -0.3919 H   0  0  0  0  0  0  0  0  0  0  0  0
  1  4  1  0  0  0  0
  1  3  1  0  0  0  0
  2  1  1  0  0  0  0
  2  6  1  0  0  0  0
  5  2  1  0  0  0  0
  7  9  1  0  0  0  0
  7  2  1  0  0  0  0
  8  7  1  0  0  0  0
 10  7  1  0  0  0  0
 11 10  1  0  0  0  0
 12 13  2  0  0  0  0
 12 17  1  0  0  0  0
 12 14  1  0  0  0  0
 15 12  2  0  0  0  0
 16  1  1  0  0  0  0
 17 18  1  0  0  0  0
 17 19  1  0  0  0  0
 20 17  1  0  0  0  0
 21 23  1  0  0  0  0
 22 21  1  0  0  0  0
M  RAD  1  14   2
M  END
$$$$
