1msa_3w.log
 OpenBabel11151907403D
Gaussian 09 #p opt freq wB97XD/6-31++G(d,p) iop(5/13=1) iop(1/11=1)
 18 14  0  0  0  0  0  0  0  0999 V2000
   -1.2074   -0.0928   -0.1200 S   0  0  0  0  0  0  0  0  0  0  0  0
   -0.7281   -1.4768   -0.1027 O   0  0  0  0  0  0  0  0  0  0  0  0
   -0.9960    0.6833   -1.3360 O   0  0  0  0  0  0  0  0  0  0  0  0
   -0.6205    0.6885    1.1134 O   0  0  0  0  0  0  0  0  0  0  0  0
    0.1642    1.2911    0.7999 H   0  0  0  0  0  0  0  0  0  0  0  0
   -2.9329   -0.1206    0.2943 C   0  0  0  0  0  0  0  0  0  0  0  0
   -3.4389   -0.6864   -0.4886 H   0  0  0  0  0  0  0  0  0  0  0  0
   -3.0461   -0.6121    1.2603 H   0  0  0  0  0  0  0  0  0  0  0  0
   -3.2945    0.9065    0.3290 H   0  0  0  0  0  0  0  0  0  0  0  0
    1.2589    2.0872    0.1744 O   0  0  0  0  0  0  0  0  0  0  0  0
    2.0736    1.5309    0.0977 H   0  0  0  0  0  0  0  0  0  0  0  0
    0.9561    2.2479   -0.7270 H   0  0  0  0  0  0  0  0  0  0  0  0
    3.2725    0.3445   -0.0043 O   0  0  0  0  0  0  0  0  0  0  0  0
    2.8728   -0.5548   -0.0019 H   0  0  0  0  0  0  0  0  0  0  0  0
    3.9591    0.3460   -0.6745 H   0  0  0  0  0  0  0  0  0  0  0  0
    2.0040   -2.0467    0.0131 O   0  0  0  0  0  0  0  0  0  0  0  0
    1.0448   -1.9101   -0.1031 H   0  0  0  0  0  0  0  0  0  0  0  0
    2.0985   -2.5909    0.7988 H   0  0  0  0  0  0  0  0  0  0  0  0
  1  2  2  0  0  0  0
  1  6  1  0  0  0  0
  1  4  1  0  0  0  0
  3  1  2  0  0  0  0
  5  4  1  0  0  0  0
  6  9  1  0  0  0  0
  6  8  1  0  0  0  0
  7  6  1  0  0  0  0
 11 10  1  0  0  0  0
 12 10  1  0  0  0  0
 13 14  1  0  0  0  0
 15 13  1  0  0  0  0
 16 18  1  0  0  0  0
 17 16  1  0  0  0  0
M  END
$$$$
