43
1sa1msa1fa1dma1eda-1
S       -0.79643800       0.93612800       1.19591900
O       -0.54608900      -0.45679600       1.95341300
O       -2.11819300       1.35765500       1.67831700
O        0.31386000       1.83671100       1.56972700
O       -0.77376500       0.62096900      -0.25596400
H        1.68213700       1.58412100       0.54298500
H       -0.53195700      -2.22470800      -0.55236700
S        2.21808800      -1.94722200       0.03191200
O        2.78436800      -1.02856300      -0.99069300
O        1.07946700      -2.75717300      -0.46893600
O        1.90860300      -1.23116900       1.30014900
H        0.38373600      -0.76404600       1.76927900
C        3.50528600      -3.11622400       0.42098900
H        4.36053200      -2.56388600       0.81018400
H        3.12068800      -3.80904300       1.16951400
H        3.76941800      -3.64362900      -0.49570500
H       -5.25872500       1.06933100      -1.46652400
H       -3.35717100       1.52039800       0.61840000
C       -4.41642000       0.78671000      -0.81877400
O       -4.12993400       1.74647400       0.02271900
O       -3.85965400      -0.29172500      -0.91127700
N       -1.54099700      -2.01031000      -0.70687200
C       -2.34825600      -2.68520700       0.33249900
C       -1.89073600      -2.38742200      -2.09125400
H       -1.62040600      -0.98233300      -0.59823100
H       -2.17447900      -3.76078600       0.26908400
H       -2.03045400      -2.30409100       1.30281500
H       -3.39859500      -2.44935000       0.16560300
H       -1.72826200      -3.45873200      -2.21962700
H       -2.93271400      -2.12559500      -2.27273800
H       -1.24149400      -1.83665600      -2.77193700
H        2.32771000       2.15034400      -2.28528400
H        0.72795500       1.80617000      -1.56732800
H        1.05851500       4.28056100      -1.88066600
H        0.87210500       3.83032400      -0.18037800
H        3.36993900       4.61357100      -1.48497700
H        2.76047200       5.09087400      -0.04316100
H        2.59187500       0.60734000      -0.50626600
H        3.17164500       2.13325100       0.00299500
C        1.69434800       2.28526600      -1.40398800
C        1.53950100       3.75756400      -1.04432700
N        2.34497700       1.59275700      -0.26579400
N        2.84737600       4.30310800      -0.67326200
43
1sa1msa1fa1dma1eda-3
S        0.64742800      -1.35854200      -0.77502200
O        0.85517300      -0.72849600       0.55145600
O        0.52432600      -0.15136900      -1.82979600
O        1.80862600      -2.11318400      -1.26342400
O       -0.63536300      -2.09364500      -0.81371900
H       -1.56935700      -1.39189100       0.46365600
S       -1.55456900       2.27994200      -0.01451100
O       -0.21948100       2.91516900       0.10105500
O       -2.07130000       1.74013500       1.26902700
O       -1.62119000       1.26373900      -1.10431100
H       -0.28725400       0.38318500      -1.61733400
C       -2.66624700       3.58811200      -0.49431600
H       -2.66133500       4.34158300       0.29325100
H       -2.30850500       4.00834100      -1.43428600
H       -3.66211200       3.16178100      -0.61580600
H        5.28248600      -1.96788100       1.51748100
H        3.10202500      -2.36928100      -0.28219100
C        4.45145900      -1.63291500       0.88040700
O        3.87395300      -2.64785600       0.29029300
O        4.15026700      -0.45891300       0.76949100
N        2.21245000       1.66801100       0.32749600
C        2.98980400       1.85942300      -0.91638500
C        2.83245000       2.25756400       1.53119500
H        1.26247100       2.07937600       0.20683300
H        3.96958200       1.40122000      -0.78714200
H        2.45328900       1.36706700      -1.72758300
H        3.08122000       2.92894000      -1.11373300
H        3.79701800       1.77897600       1.69721400
H        2.95069200       3.33169400       1.37950800
H        2.17330200       2.07888300       2.38081100
H        2.04515000       0.65517500       0.47934500
H       -4.38348500      -0.52910100       0.58569000
H       -3.31132100      -0.58190300      -0.83299800
H       -4.79199900      -2.62011800      -0.75102900
H       -3.08009500      -3.03578300      -0.59636300
H       -5.05158800      -3.05029300       1.56412700
H       -3.91414000      -4.16636800       1.19143100
H       -2.17093000      -0.00220400       1.23633100
H       -2.54966500      -1.56849000       1.81454500
C       -3.56754800      -1.07649100       0.10500300
C       -3.91793700      -2.54617200      -0.09135200
N       -2.37985100      -0.99212000       0.98662300
N       -4.10590900      -3.17261700       1.21915200
43
1sa1msa1fa1dma1eda-2
S        0.89483500      -1.85443700      -0.20886400
O        2.27742100      -2.27376200      -0.47512900
O        1.00420700      -1.13287500       1.22042800
O        0.38002100      -0.81754100      -1.14331400
O       -0.06015100      -2.97322800      -0.08874600
H        1.02636700       0.73641700      -0.80573200
H       -1.61101700      -2.44395000      -0.50701000
S       -2.00650500       1.13923400       1.03958700
O       -2.76312900      -0.12540500       1.25133800
O       -2.17611000       1.69429600      -0.31789500
O       -0.57179400       1.00363900       1.43779100
H        0.29606900      -0.44486200       1.33858600
C       -2.69624900       2.31456200       2.18893000
H       -3.75114000       2.44820800       1.94845400
H       -2.57510600       1.91562200       3.19595100
H       -2.15227900       3.25322800       2.07772100
H        5.60501500      -0.04812900       1.49783900
H        3.56512700      -1.69504000       0.34543800
C        4.66166000      -0.21997100       0.96346700
O        4.41884100      -1.49233100       0.82937800
O        3.97855100       0.70979500       0.56295800
N       -2.56943100      -2.04401000      -0.64351100
C       -3.57656000      -3.09490100      -0.40403800
C       -2.65878500      -1.39657400      -1.97000500
H       -2.65879700      -1.30118500       0.09324000
H       -3.46658000      -3.88008500      -1.15386800
H       -3.41803800      -3.51268300       0.59011000
H       -4.57454300      -2.65814500      -0.46634400
H       -2.51114200      -2.14896700      -2.74659800
H       -3.63916400      -0.92915100      -2.07371700
H       -1.87585200      -0.64192600      -2.02659600
H        2.47913100       3.32367600      -1.04375500
H        2.41191200       2.02388700      -2.25857800
H        0.83079400       3.87484500      -2.81557200
H       -0.03435100       2.36945500      -2.50968600
H       -0.39113400       4.77014700      -1.14813200
H       -1.05446100       3.30139000      -0.76430700
H        2.36890200       1.22015500       0.04616800
H        0.87869000       1.97861700       0.27456600
C        1.84705200       2.55042400      -1.48539900
C        0.55924900       3.15957100      -2.03240800
N        1.51688200       1.57500600      -0.42375400
N       -0.18784200       3.79934000      -0.95523500
