36
1sa1msa1ma1tma-01
S       -1.29910000       1.46736400      -0.67307800
O       -0.88732400       0.75212400       0.58444000
O       -0.80494500       0.51304600      -1.86361400
O       -2.74004600       1.55191600      -0.85345600
O       -0.54314000       2.73644500      -0.77779200
H        0.86413600       2.53972300       0.11458800
S        2.12708900      -0.94930700      -0.22360900
O        1.16870700      -2.03910000       0.03828100
O        2.47966600      -0.15541400       0.99012700
O        1.72909300      -0.05597500      -1.34988000
H        0.15881700       0.29222900      -1.72781600
C        3.64553000      -1.72760000      -0.74836500
H        3.98556700      -2.38265800       0.05406500
H        3.43571800      -2.30088600      -1.65162600
H        4.38118800      -0.94903600      -0.95019200
N        1.61293900       2.40791800       0.84146300
H        1.91634100       1.39852800       0.83414300
C        1.06607400       2.75835500       2.17048400
H        1.82040100       2.57548800       2.93595800
H        0.76155500       3.80504900       2.17631800
H        0.19770900       2.12124700       2.33332000
H        2.41541800       2.98097100       0.59220300
N       -1.98637500      -1.66970900       0.59980000
C       -1.44494200      -2.53225100       1.67674900
H       -0.39273300      -2.71945400       1.46158300
H       -1.54072800      -2.00548400       2.62707300
H       -2.01465200      -3.46441000       1.70890400
C       -3.38072700      -1.23732700       0.86585000
H       -3.41659500      -0.75260200       1.84181300
H       -3.67049800      -0.51315600       0.10268200
H       -4.03709700      -2.11074900       0.85318700
C       -1.85776700      -2.30716000      -0.73712600
H       -2.20146600      -1.59814200      -1.49018400
H       -0.80354000      -2.52903100      -0.90147600
H       -2.46342700      -3.21698300      -0.75180800
H       -1.41497500      -0.77546600       0.58499600
36
1sa1msa1ma1tma-02
S       -0.94459000       1.82477500      -0.32478100
O       -0.79889100       0.82633400       0.78721100
O       -0.57467700       1.01255200      -1.65805300
O       -2.31209100       2.27037000      -0.54342300
O        0.07717800       2.88449200      -0.15433500
H        1.25895300       2.20117200       0.78781600
S        1.70422500      -1.41804600      -0.18601600
O        0.47890400      -2.23482900      -0.24357200
O        2.07347800      -0.97412200       1.18824400
O        1.70021700      -0.26597200      -1.13886300
H        0.28768700       0.53194700      -1.52067200
C        3.03988000      -2.47287600      -0.72674900
H        3.09796200      -3.31985200      -0.04269300
H        2.81755800      -2.80932200      -1.73960700
H        3.96596900      -1.89802700      -0.70702000
N        2.06541100       1.75099600       1.29520900
H        2.08137300       2.10542000       2.24835400
C        3.32658300       2.02272600       0.57120900
H        4.15990100       1.56240500       1.10229600
H        3.22846900       1.57609700      -0.41810300
H        3.47550300       3.09897400       0.48491000
H        1.90166400       0.71406100       1.32600400
N       -2.50377800      -1.16644500       0.40782200
C       -2.49525100      -1.54303900      -1.03002700
H       -2.62350300      -0.63750700      -1.62322000
H       -1.52676000      -1.99026900      -1.25246400
H       -3.31019400      -2.24772200      -1.21468300
C       -2.24289500      -2.32933900       1.28841300
H       -1.27715300      -2.75224100       1.01151200
H       -2.21000500      -1.98229100       2.32201700
H       -3.04613300      -3.06035400       1.16522400
C       -3.74525700      -0.44178900       0.77536700
H       -3.69118800      -0.17069800       1.83014000
H       -3.80230900       0.46920700       0.17694000
H       -4.60665800      -1.08927300       0.59495300
H       -1.71804300      -0.46594100       0.55287900
36
1sa1msa1ma1tma-04
S        1.41804400       1.40226900      -0.60654200
O        0.33544600       1.16211900      -1.76271700
O        2.70722200       0.89001700      -1.06471300
O        1.34338500       2.85596100      -0.35974800
O        0.88860200       0.63974900       0.57554900
H       -0.27670800       2.97261200       0.23944000
H        1.34776800      -0.89351100       0.58516500
S       -2.15900900      -0.84583800      -0.19410000
O       -2.52932300       0.57455100       0.07066000
O       -1.80602500      -1.61129300       1.01147500
O       -1.13730900      -0.96190100      -1.28081700
H       -0.19598600       0.33115000      -1.59474700
C       -3.64049900      -1.58176300      -0.86622700
H       -4.42571300      -1.50587500      -0.11381900
H       -3.91464300      -1.03860900      -1.77060800
H       -3.42734200      -2.62667800      -1.09312500
N       -1.20134300       2.80257700       0.70354800
H       -1.83966000       3.55791500       0.46533600
C       -1.01544600       2.66656300       2.16643000
H       -1.97181400       2.42393500       2.62879800
H       -0.30841800       1.85232500       2.31906500
H       -0.61400900       3.59427500       2.57456500
H       -1.60929100       1.90258000       0.33319500
N        1.80650500      -1.85092100       0.54983600
C        3.22836300      -1.63563300       0.91194800
H        3.64743400      -0.90598700       0.21773100
H        3.27627500      -1.23917300       1.92677200
H        3.76066100      -2.58815100       0.85461300
C        1.10018600      -2.73161400       1.51070900
H        1.22252600      -2.32005400       2.51339500
H        0.03835100      -2.73835600       1.25782000
H        1.53544300      -3.73287500       1.46147000
C        1.66897600      -2.33362900      -0.84892300
H        0.60714700      -2.36364500      -1.09600700
H        2.17383000      -1.62147300      -1.50348700
H        2.12799600      -3.32207000      -0.93014300
