64
4sa1am2dma1eda-43
S        0.32607500      -2.54119700      -0.68167200
O       -0.13135900      -1.63385000      -1.73868800
O        1.80634600      -2.66471900      -0.61426400
O       -0.10806000      -1.87266200       0.73600800
O       -0.37121900      -3.83311500      -0.63930300
H       -2.12383300      -3.35107400      -0.70627200
H       -0.08079300      -0.88641600       0.72164400
S       -3.59260300       0.58591000       0.05717500
O       -2.64315900      -0.10524800      -0.86394600
O       -4.91022300      -0.02591000       0.11012300
O       -2.97796200       0.35457400       1.53447000
O       -3.56588700       2.05245300      -0.16867200
H       -2.62566300       3.07824600       0.75665900
H       -2.00472500       0.50574800       1.49419100
S        3.28666800       0.46610200      -1.51273800
O        2.37181300       1.06002600      -2.51329700
O        4.59147400       1.08561100      -1.40776700
O        2.56252100       0.33982300      -0.18865900
O        3.55625600      -1.05473300      -1.92444700
H        2.81379300      -1.62942300      -1.62039700
H        2.14689300       1.53825300       0.59476500
S        0.62139600       1.46342100       2.09030400
O       -0.33275000       0.81168600       1.10793400
O        1.66076200       2.23738600       1.17053400
O       -0.06185700       2.50114300       2.86430100
O        1.35810300       0.45465900       2.85831400
H        2.54001400      -1.87120700       0.82040000
N       -1.91429500       3.74502400       1.14461300
H       -1.37779000       3.30293500       1.91525100
H       -2.36983500       4.59093000       1.47484600
H       -1.22238700       3.95779300       0.37160900
N       -2.98270900      -2.79792600      -0.52536000
H       -2.72336600      -1.79412600      -0.67559900
C       -4.05544300      -3.12415000      -1.48863000
H       -3.67130700      -2.98019300      -2.49839400
H       -4.36498500      -4.16134800      -1.35139400
H       -4.89253000      -2.44738300      -1.31053000
C       -3.36876800      -2.97165900       0.89539000
H       -3.63222700      -4.01647300       1.06704300
H       -2.51474900      -2.69177100       1.51109800
H       -4.21383400      -2.31663300       1.11039700
N        2.87384500      -1.66213700       1.77999300
H        2.37131400      -0.80537700       2.07492400
C        2.46495400      -2.77533600       2.66420800
H        1.38272500      -2.88058800       2.59625500
H        2.94875900      -3.69259300       2.32683100
H        2.75880300      -2.54484100       3.68892900
C        4.33117100      -1.40185300       1.75081400
H        4.84188800      -2.29308200       1.38438100
H        4.51823800      -0.56464900       1.07974100
H        4.66875800      -1.16270800       2.76013900
C       -0.91093500       2.32178700      -2.31024100
N       -0.24046200       1.14178000      -1.71605000
C       -0.04854600       3.57096500      -2.20320600
N        0.13818500       4.00551900      -0.80800900
H       -0.76272000       0.27351600      -1.87866000
H       -0.19458700       1.19671700      -0.68685200
H       -1.08838500       2.09696700      -3.36400900
H       -1.87577100       2.44059700      -1.81086500
H       -0.56911800       4.36902100      -2.73986000
H        0.91023300       3.39658000      -2.70806000
H        0.56270500       4.92894800      -0.80443100
H        0.81059000       3.40794400      -0.32290800
H        0.73434900       1.01658100      -2.07741400
64
4sa1am2dma1eda-4
S       -2.99022100       2.14009500      -0.46421200
O       -2.60660700       1.43572600       0.81590600
O       -4.42668700       2.29676900      -0.58180800
O       -2.48599300       1.12409700      -1.62917500
O       -2.14663400       3.31611500      -0.70646400
H       -2.77241800       0.20620600      -1.42782800
H       -1.21030300       1.60803700       1.22015700
S        0.25385400       0.23407400       2.09165900
O        0.18058800      -0.80493700       1.04817900
O       -0.18967900       1.61453000       1.40264400
O       -0.67948900      -0.00645900       3.20364900
O        1.64558000       0.54831500       2.50965700
H        3.02338800      -0.14638100       1.73636100
S        4.03058000       0.04776600      -0.18000200
O        2.74017500      -0.27985000      -0.87584800
O        3.83312300      -0.52576800       1.31408200
O        5.17165700      -0.67508200      -0.69905000
O        4.18170100       1.51835900      -0.06455900
H        3.17674400       2.50658900       0.81488200
S       -1.60118600      -2.27905400      -1.49297300
O       -1.09371500      -3.32265600      -0.58400700
O       -2.72487900      -1.50902000      -0.89522200
O       -0.55766800      -1.45413100      -2.10585400
O       -2.24336200      -3.04277800      -2.76797900
H       -3.00470200      -3.55993900      -2.47158200
N        2.42049800       3.01854300       1.33396100
H        2.81136100       3.79576700       1.85824700
H        1.99470000       2.33212200       1.97512300
H        1.69741300       3.36009400       0.63058700
C       -2.57986600      -2.61455500       2.25966300
N       -2.87455200      -1.20610500       1.91677900
C       -4.26111800      -0.77334400       2.20303100
H       -2.19533400      -0.60869600       2.42491600
H       -3.24754800      -3.26540300       1.69478900
H       -1.54878700      -2.82046000       1.97645300
H       -2.72146000      -2.75634200       3.33177100
H       -4.94844900      -1.39440200       1.62713100
H       -4.45563300      -0.88876300       3.27024200
H       -4.35550800       0.26972700       1.90317900
H       -2.68564500      -1.07543400       0.90867000
C        2.29072100      -3.32231600      -1.53614000
N        1.68948400      -2.77290800      -0.30085900
C        2.25720800      -3.32088700       0.94989900
H        1.83902000      -1.74726400      -0.31858100
H        2.16249200      -4.40563900      -1.54708500
H        1.77852800      -2.87452700      -2.38724100
H        3.34844900      -3.05675800      -1.55740000
H        2.10111000      -4.40071100       0.96784900
H        3.32025200      -3.08328200       0.99137300
H        1.74644900      -2.84837100       1.78815300
H        0.66709800      -2.92833100      -0.31475000
C        0.44173900       2.13698400      -2.43290800
N        0.47208300       1.08347800      -1.39236800
C        1.25473200       3.35532100      -2.02513200
N        0.76582700       3.94073100      -0.76226600
H       -0.12172200       0.27855800      -1.64919500
H        0.13133300       1.42697500      -0.48583800
H        0.84946300       1.70587400      -3.34906700
H       -0.60534400       2.39782500      -2.59495300
H        1.19553900       4.06632300      -2.85755200
H        2.30936100       3.07629100      -1.90558000
H       -0.25072000       3.82858000      -0.68283200
H        0.93645000       4.94203800      -0.76608700
H        1.42724400       0.69439900      -1.22627300
64
4sa1am2dma1eda-3
S       -3.06617700      -1.75509100      -0.88547800
O       -2.13087600      -0.50067200      -0.96987500
O       -4.45683900      -1.29337600      -0.74526100
O       -2.63339600      -2.46122700       0.39597500
O       -2.75695400      -2.57408600      -2.07019100
H       -2.33080500       0.32918600       0.06862500
H       -0.79961700      -0.85084800      -1.95144000
S        3.41983300      -1.69677900       0.94311600
O        2.65258700      -0.67879700       0.16647500
O        4.52708200      -1.16422500       1.72449500
O        2.49669200      -2.59441400       1.65541900
O        4.07535300      -2.57599600      -0.26989900
H        4.88025200      -2.99255600       0.06698700
S       -1.64942900       0.98652600       2.14017300
O       -2.57758800       1.04731800       0.84244900
O       -0.71375600      -0.14021500       1.95707400
O       -0.93014200       2.29082600       2.15264100
O       -2.59362700       0.80576000       3.25684100
H       -3.74846700      -0.41641700       2.65061300
S        1.51575900       1.52904400      -2.10804000
O        1.37958400       2.97263200      -2.28322200
O        0.61590600       1.00986000      -1.01636300
O        1.37491500       0.72422900      -3.33545400
O        3.00349000       1.31394400      -1.55457000
H        3.04154600       0.48643800      -1.01379900
N       -4.24616800      -1.15721200       2.10912900
H       -3.54455000      -1.79958000       1.64736300
H       -4.73541600      -0.75333400       1.30084100
H       -4.89326100      -1.67728300       2.69391100
C        2.56164700       2.70869400       1.32547700
N        1.72695000       1.56299300       1.74809400
C        2.14687800       0.94884400       3.03077300
H        0.73311100       1.86324600       1.83812100
H        3.59015900       2.37098300       1.19609600
H        2.18895300       3.09170100       0.37520700
H        2.51136200       3.48080100       2.09479800
H        3.17430700       0.59353200       2.93936000
H        2.06557200       1.69797000       3.81945700
H        1.47517100       0.11620900       3.23788900
H        1.74871300       0.83802500       1.01577700
C       -0.91273700       4.29228400      -0.48237100
N       -1.37691000       2.92386700      -0.79355000
C       -2.02905200       2.76640200      -2.11406400
H       -0.57022800       2.26195400      -0.77025900
H       -1.75465100       4.98195900      -0.56037700
H       -0.53239600       4.29166700       0.53918000
H       -0.12632800       4.55617500      -1.18958700
H       -2.89963100       3.42168900      -2.16670800
H       -1.30685600       3.02748300      -2.88873900
H       -2.33803500       1.72422900      -2.21307500
H       -2.00344500       2.56667700      -0.05627100
C        0.82695600      -2.20990900      -2.08562800
N       -0.24511700      -1.36867200      -2.67930900
C        0.36281000      -2.98360400      -0.86638700
N        0.07816900      -2.09779500       0.29919000
H       -0.96162800      -1.92783600      -3.15167300
H        0.19570000      -0.64728200      -3.27716300
H        1.17331200      -2.90797900      -2.84931700
H        1.65425800      -1.54999100      -1.82377100
H        1.15931500      -3.66993100      -0.57484100
H       -0.54580200      -3.55185200      -1.07888700
H        0.74294000      -2.29571600       1.06403400
H       -0.91474300      -2.21103300       0.60150500
H        0.19448200      -1.09848700       0.09584300
