14
1fa1gd
C       -1.47966000      -0.04502400      -0.01837600
N       -0.69692400      -1.07678300      -0.07182900
N       -2.85168400      -0.11053500       0.14321500
N       -0.97494200       1.21417200      -0.11386700
H       -1.19453300      -1.95954400      -0.09894900
H        0.04569000       1.28776900      -0.09250500
H       -1.48121000       1.95440900       0.34537200
H       -3.27081200      -1.02298200       0.05579600
H       -3.38987100       0.62677500      -0.28713000
O        1.90770000      -1.12700700       0.01563500
H        0.86868900      -1.06651900      -0.02187800
C        2.47559000       0.04534000       0.03302200
O        1.90968000       1.12917700       0.01439100
H        3.57228000      -0.02715100       0.06857600
13
1fd1gd
C        1.16287200      -0.07776400      -0.13413600
N        0.68431300      -1.19399100      -0.54981400
N        0.52041900       1.15230500      -0.11532900
N        2.44733900      -0.02370300       0.38700700
H       -0.18999000      -1.04630800      -1.04884500
H        2.86062000      -0.94067900       0.47859500
H        2.56553400       0.55970000       1.20295200
H       -0.39008800       1.17372200      -0.55850400
H        1.09931600       1.95835400      -0.30062100
C       -2.40446400      -0.34159500       0.63188900
O       -2.40622400       0.32366700      -0.37888200
H       -3.34910600      -0.63806600       1.12206500
H       -1.46143600      -0.68217900       1.09586200
15
1ml1gd
C        1.25100800      -0.06991700      -0.00873800
N        0.49856300      -1.10683900      -0.15491900
N        2.63167200      -0.07856700       0.13137300
N        0.70111600       1.19057400       0.00942900
H        1.00712200      -1.97853900      -0.04967200
H       -0.28351700       1.20610400      -0.25366300
H        1.25999400       1.92584200      -0.39655800
H        3.05207300      -0.98115100       0.29007200
H        3.02060300       0.65210600       0.70967800
C       -2.76321800      -0.05653700       0.50920100
H       -3.47556400       0.77232300       0.52204000
H       -2.17402900      -0.02547500       1.43703500
H       -3.32954700      -0.99737400       0.48878700
O       -1.94915100       0.09069300      -0.63359200
H       -1.23012600      -0.57682800      -0.58294700
15
1pxfa1gd
C        1.77662900      -0.06072100      -0.02442900
N        0.99857700      -1.07148800      -0.24511800
N        3.11660200      -0.00744900      -0.36224400
N        1.29355000       1.06738800       0.57270700
H        1.48600700      -1.88494600      -0.60312800
H        0.27846100       1.13427000       0.61955700
H        1.75100600       1.93589500       0.34226000
H        3.54689500      -0.88274000      -0.61668100
H        3.70303700       0.57715200       0.21478000
C       -2.28170400       0.55778500      -0.50892900
O       -1.57292700       1.41448000      -0.04167700
O       -2.28089600      -0.74517700      -0.23368900
H       -3.05713100       0.73091500      -1.26851400
O       -1.40201200      -1.09083300       0.82466600
H       -0.49226000      -1.13984500       0.36005400
16
1pxml1gd
C       -1.56783500       0.02654100       0.04754000
N       -0.84960900       1.06290500       0.32422000
N       -2.95005000      -0.03882800       0.10770100
N       -0.97121200      -1.14138600      -0.35246700
H       -1.39183500       1.82572600       0.71600700
H        0.03285200      -1.06163000      -0.50868900
H       -1.47157900      -1.69603500      -1.03015600
H       -3.41600100       0.74754700       0.53250600
H       -3.34409100      -0.93232600       0.36308900
C        2.50591100      -0.50480000       0.82036800
H        2.66287800      -1.57966300       0.94808900
H        1.87031400      -0.11986500       1.62659000
H        3.46739600       0.01803500       0.81833300
O        1.86879600      -0.36634700      -0.43475100
O        1.70279300       1.03047000      -0.67970700
H        0.78499600       1.17594700      -0.31373000
12
1w1gd
C        0.71602000      -0.06816700       0.02271600
N       -0.03200600      -1.11783500       0.05770400
N        2.09617400      -0.05690200      -0.12571400
N        0.16265200       1.18655500       0.12661200
H        0.50314500      -1.97981700       0.07258500
H       -0.85433700       1.18911800       0.07578900
H        0.61173600       1.91438100      -0.40860100
H        2.55498500      -0.95052400      -0.03917000
H        2.58320100       0.69081700       0.34689600
O       -2.54035500       0.03259900      -0.13640400
H       -3.14618900      -0.16942700       0.57960500
H       -1.81356100      -0.62906600      -0.08238300
