47
1sa1msa1nta2tma-1
N        0.18549800       2.57666600       0.80828700
C       -0.35047400       2.66562900       2.18824600
H       -1.36929300       2.27749500       2.17854600
H        0.27957800       2.06165200       2.84295600
H       -0.32775800       3.70898200       2.51196100
C        1.62019500       2.95263500       0.74201000
H        2.19150200       2.28392000       1.38701400
H        1.95663900       2.82780000      -0.28651000
H        1.72976100       3.98916000       1.06966500
C       -0.63576700       3.35361600      -0.15811000
H       -0.24839400       3.15923000      -1.15823500
H       -1.66500400       3.00345800      -0.08275700
H       -0.55777100       4.41509000       0.08997400
N       -0.50069700      -2.58635700       0.95212100
C       -0.58840900      -3.38835000      -0.29884500
H       -1.59252000      -3.26679700      -0.70359300
H        0.14423500      -3.00465900      -1.00916000
H       -0.38325600      -4.43433800      -0.06008900
C        0.88848600      -2.53424700       1.47672500
H        1.53996300      -2.12669900       0.70564100
H        0.91043100      -1.87879500       2.34713800
H        1.19309200      -3.54571600       1.75489100
C       -1.45890200      -3.06900300       1.97687000
H       -1.41599700      -2.40141200       2.83755900
H       -2.45995000      -3.03815800       1.55206800
H       -1.17867700      -4.08340900       2.26914200
N        4.27757600      -0.13375400       0.32562400
O        3.24574300      -0.00907700       0.97328600
O        5.38624700       0.20290000       0.66242400
O        4.18651200      -0.70720900      -0.88368500
H        3.19881900      -0.86661400      -1.07550400
S       -3.11826000       0.26476200      -0.10499500
O       -2.85173300       1.27254400       0.94152700
O       -2.74621000      -1.11706600       0.28744000
O       -2.55375800       0.64998200      -1.43537600
H       -1.30550900      -0.11720600      -1.99051000
C       -4.88792900       0.24789700      -0.34777000
H       -5.19559300       1.24345000      -0.66845100
H       -5.12271200      -0.49125200      -1.11381500
H       -5.35866100      -0.01244700       0.60061100
S        0.73353300      -0.09968000      -1.35943000
O       -0.45940300      -0.60671300      -2.26184400
O        1.72688500      -1.20226800      -1.46406700
O        1.21507000       1.19646000      -1.83158400
O        0.17509500      -0.01138800       0.03098000
H        0.12065000       1.56736900       0.51652500
H       -0.78338700      -1.62169100       0.68596300
47
1sa1msa1nta2tma-3
N        3.12224500      -0.38707700       0.18479100
C        3.44310100       1.03637200       0.46412900
H        3.11077600       1.64057900      -0.37685800
H        2.89672600       1.34999400       1.35308200
H        4.52147000       1.12382200       0.61431500
C        3.49585200      -1.26237100       1.32679000
H        2.99885900      -0.88865300       2.22050400
H        3.15296500      -2.27274700       1.11183700
H        4.58073600      -1.22657700       1.44684200
C        3.72552600      -0.86051500      -1.08773400
H        3.39469600      -1.88483100      -1.25651700
H        3.35911800      -0.22201100      -1.89027700
H        4.81280700      -0.80570000      -1.00220200
N       -3.19528800       0.09282900       0.22455700
C       -3.67824900       1.48876600       0.37117200
H       -3.26312200       1.90224500       1.28971200
H       -3.31424000       2.06434700      -0.47732400
H       -4.76991300       1.47878800       0.40953900
C       -3.61983000      -0.51541800      -1.06341600
H       -3.23995400       0.10791500      -1.87127200
H       -3.17977300      -1.50993200      -1.13904200
H       -4.71042500      -0.57293800      -1.08313700
C       -3.58650900      -0.75049900       1.38272100
H       -3.16232700      -1.74358200       1.24449100
H       -3.17351100      -0.30381200       2.28656100
H       -4.67685300      -0.78973000       1.43438800
H       -2.16031100       0.10884200       0.19116000
N        0.13353900       1.11774200       2.45203500
O       -1.07367000       1.22307000       2.30033200
O        0.86316400       1.88968400       3.02542000
O        0.72364300       0.01804000       1.96421800
H        0.02104500      -0.52091100       1.39797100
S        0.19554700       1.71401500      -1.32398700
O        0.68549600       2.40351600      -0.12339900
O       -1.25429200       1.42311800      -1.33621600
O        1.00425800       0.47783400      -1.62829900
H        0.06465800      -0.87436900      -1.87563200
C        0.49054400       2.80543900      -2.70902600
H       -0.05367300       3.73272700      -2.52769900
H        1.56153900       3.00089200      -2.77267000
H        0.13365300       2.31853100      -3.61681500
S       -0.26910500      -2.32850500      -0.36406500
O       -1.05409900      -3.54666000      -0.35136500
O       -0.45803300      -1.72250900      -1.83046100
O       -0.84993800      -1.27280500       0.56203200
O        1.17884900      -2.43495200      -0.11761300
H        2.10287300      -0.46285900       0.04315900
47
1sa1msa1nta2tma-10
N        2.83281900       0.91605200      -0.69489000
C        3.91474400      -0.09038600      -0.54205700
H        4.04431300      -0.29301700       0.52170800
H        3.61323500      -0.99834600      -1.06731800
H        4.83531200       0.31507200      -0.96759300
C        2.51279100       1.16936800      -2.12614300
H        2.24077400       0.21767600      -2.58478800
H        1.67444500       1.86602400      -2.16410700
H        3.39387600       1.59382800      -2.61242900
C        3.13209800       2.17135700       0.03948000
H        2.26280800       2.82411400      -0.03114200
H        3.32224600       1.92634200       1.08342500
H        4.01120400       2.63417800      -0.41486400
N       -3.24956100      -0.72743600      -0.06547200
C       -2.65200600      -1.36239300       1.13989500
H       -1.92736400      -2.10227600       0.80205500
H       -2.14894400      -0.58926400       1.72046400
H       -3.45036600      -1.83354100       1.71779900
C       -4.26278300       0.29686500       0.29911800
H       -3.79952400       1.01222100       0.97856800
H       -4.57728500       0.81928900      -0.60409900
H       -5.11143500      -0.20097700       0.77326700
C       -3.77318700      -1.73445000      -1.02202300
H       -4.17099700      -1.21516700      -1.89447800
H       -2.94751000      -2.38306900      -1.31707000
H       -4.56506000      -2.30683000      -0.53382700
H       -2.47959200      -0.21637900      -0.55299400
N        1.11759000      -0.07473500       2.45200800
O        0.11582500      -0.67926800       2.78291800
O        2.26082400      -0.48941000       2.50260500
O        0.98851600       1.17241200       1.99811200
H        0.00039500       1.33400100       1.69850100
S        0.72158900      -2.10376800      -0.78985500
O        1.75264100      -2.23276700      -1.82842700
O       -0.63543100      -2.55382500      -1.14620500
O        0.66812900      -0.68119600      -0.25037700
H       -0.47083800       0.20565600      -0.94501200
C        1.24669200      -3.07517200       0.61183600
H        1.30916300      -4.11478000       0.28871000
H        2.21977600      -2.71182200       0.94329500
H        0.51651900      -2.95404000       1.41258200
S       -1.20691800       2.16013200      -0.34792800
O       -1.28184800       1.66805000       1.07480100
O       -1.25346400       0.76959600      -1.22196800
O       -2.41016000       2.85632600      -0.76014500
O        0.09221600       2.76396100      -0.64952600
H        1.97611800       0.46995500      -0.30260300
