57
3sa1dma2tma-300120_1_116
S       -0.54838500       1.43470500       1.84244600
O       -1.37006600       1.54155000       0.59409300
O        0.72236700       2.18471300       1.69822900
O       -1.29673400       1.72220900       3.05481100
O       -0.13292900      -0.12277100       1.91464800
H       -0.48062600      -0.58558700       1.10561500
S       -1.07166300      -1.78369200      -1.44464700
O       -2.33502400      -1.90221000      -2.16805700
O       -1.32226900      -1.48245100       0.02072300
O       -0.09752100      -2.86561800      -1.57816300
O       -0.40489100      -0.44992800      -2.03819500
H        0.46650200      -0.30442000      -1.57513500
S        2.91494300       0.72059800      -0.55210000
O        2.66633000       1.89095300      -1.41830900
O        1.67849200      -0.14865600      -0.52630300
O        4.13034300      -0.03443200      -0.80610000
O        3.05711300       1.23307000       0.94981800
H        2.18041200       1.59148800       1.26857400
C       -0.55916300       2.70181100      -2.71027200
N        0.08128600       2.77130100      -1.38070400
C        0.20400500       4.13940700      -0.82991300
H       -0.45742000       2.19442000      -0.69353600
H        0.05343500       3.24409600      -3.43210000
H       -0.64828000       1.65461100      -2.99932400
H       -1.55008000       3.15652300      -2.65223900
H        0.82953500       4.73776500      -1.49386500
H       -0.79014100       4.58159400      -0.74600100
H        0.65809400       4.06309400       0.15784600
H        1.04454100       2.36489100      -1.42945600
N       -3.78547000      -0.41935300       0.34544900
C       -4.02450400       0.13659000       1.70128200
C       -4.03974500       0.58088900      -0.72205400
C       -4.55271700      -1.66970800       0.11395400
H       -3.76446400       0.13001800      -1.67657500
H       -5.09852100       0.85073900      -0.70985100
H       -3.41379500       1.44848100      -0.51787500
H       -3.72838100      -0.60701300       2.44174200
H       -3.41685500       1.03067600       1.83393400
H       -5.08761100       0.36638800       1.80464100
H       -4.29509400      -2.38477400       0.89573400
H       -5.62086200      -1.44372900       0.14856500
H       -4.26312700      -2.07149700      -0.85746400
H       -2.77061600      -0.69151800       0.26766000
N        2.17503600      -2.41127800       0.88015900
C        1.06039700      -3.20396700       1.45611100
C        2.88741800      -3.15112700      -0.19649800
C        3.10401800      -1.92082300       1.93129100
H        3.63868900      -2.48489900      -0.62326200
H        3.35402400      -4.03937600       0.23548500
H        2.15412600      -3.42321500      -0.95614600
H        0.54244900      -2.59030200       2.19353100
H        0.37917000      -3.47449200       0.64990100
H        1.47902400      -4.09480200       1.93056900
H        2.54120600      -1.29180000       2.62121800
H        3.53028400      -2.78091400       2.45247800
H        3.88806000      -1.32974600       1.45783100
H        1.79208600      -1.55705400       0.41103500
57
3sa1dma2tma-300120_1_100
S        2.35711100       1.81513300       0.36625500
O        2.23702100       0.44119900       1.00594400
O        1.37078300       2.73259700       0.93700900
O        3.74415600       2.25717300       0.29712900
O        1.94862400       1.54665300      -1.16828500
H        1.15692500       0.94063500      -1.17642900
S       -0.03967900      -1.44938700      -1.13690100
O       -0.29116200      -2.10008400       0.17305300
O       -0.18516400       0.03590400      -1.01859500
O        1.20594400      -1.85530200      -1.77920900
O       -1.20361700      -1.91529000      -2.11822200
H       -2.07478400      -1.65388100      -1.70680100
S       -3.46231400      -0.88266500       0.59801300
O       -3.36786900      -0.99003900      -0.88953800
O       -2.59202300       0.25678800       1.04251100
O       -4.80689800      -0.84972600       1.12941600
O       -2.78046800      -2.20523100       1.19415700
H       -1.87328600      -2.29122300       0.80579700
C       -0.12626900      -1.13122000       3.11580200
N       -0.17910100       0.11018500       2.31464900
C       -0.41179700       1.32644800       3.12439600
H        0.70632700       0.21429800       1.77323500
H       -1.10122100      -1.29839100       3.57584200
H        0.11317500      -1.95699700       2.44823700
H        0.64138600      -1.02410300       3.88421900
H       -1.39728900       1.25566900       3.58633000
H        0.36547300       1.40220000       3.88623400
H       -0.34532500       2.19228700       2.46794600
H       -0.96031600       0.03735600       1.63213500
N        4.06085500      -1.12660100      -0.20153500
C        3.77561800      -2.57545800      -0.05422200
C        4.18906500      -0.72947800      -1.63034600
C        5.23930400      -0.69342400       0.59052300
H        4.33912800       0.34925200      -1.67364500
H        5.04169000      -1.25863900      -2.06281100
H        3.26316000      -0.99524100      -2.13954100
H        3.62791400      -2.79648800       1.00370500
H        2.86763800      -2.80335800      -0.61383200
H        4.62474800      -3.14541500      -0.43854800
H        5.08988600      -0.98644500       1.63018300
H        6.13560600      -1.17184000       0.18947500
H        5.30924400       0.39367600       0.52753100
H        3.24576800      -0.59434700       0.20484000
N       -2.37469200       1.86000400      -1.28633700
C       -2.22106900       1.49661700      -2.71756500
C       -3.78066400       2.21796900      -0.96479800
C       -1.43007400       2.92903100      -0.87201400
H       -3.85935700       2.38380600       0.10868400
H       -4.04828800       3.11897500      -1.52053900
H       -4.42298000       1.38415400      -1.24670900
H       -1.19186000       1.18508200      -2.88459400
H       -2.89229600       0.66486600      -2.92964100
H       -2.47500600       2.36500300      -3.32916200
H       -0.41103100       2.62629700      -1.10337700
H       -1.68397900       3.84933400      -1.40192000
H       -1.52105300       3.07507600       0.20372800
H       -2.14062700       1.02394800      -0.71948100
57
3sa1dma2tma-300120_1_187
S       -1.16920700       2.19317500       0.16399100
O        0.20716400       2.49556300       0.59818600
O       -1.76231400       1.09385800       0.99345400
O       -2.06504800       3.32982400      -0.00491000
O       -1.05266900       1.56585900      -1.31967700
H       -0.68774600       0.63868000      -1.27391600
S        2.87539300      -1.47953800       0.12558200
O        2.00614300      -2.58070200       0.59057100
O        2.50200900      -0.20576300       0.84903000
O        4.30319500      -1.72083200       0.10125900
O        2.47605500      -1.18372700      -1.40789600
H        1.48223200      -1.11911000      -1.45935600
S       -1.08023100      -2.01777500      -0.84786800
O       -0.12887500      -0.90277000      -1.22386400
O       -1.61652500      -1.78987500       0.50602100
O       -2.09945700      -2.26429300      -1.86103900
O       -0.17166000      -3.32445900      -0.81641800
H        0.64570400      -3.14901500      -0.28173000
C        0.40876200       0.74732800       3.28611200
N        0.20464900      -0.38112400       2.35188600
C        0.08271500      -1.69473700       3.01926300
H       -0.62522500      -0.18209100       1.76312400
H        1.31923200       0.56715100       3.86015500
H        0.49728400       1.66067000       2.69816700
H       -0.44993600       0.81670800       3.95550300
H        1.02001300      -1.91794300       3.53007700
H       -0.73916800      -1.65122000       3.73616300
H       -0.12284500      -2.44884500       2.26454800
H        1.01675900      -0.39513900       1.69781200
N        3.12181100       1.92516300      -0.72476100
C        3.18924700       3.14651200       0.11706700
C        4.47483200       1.44130400      -1.10562400
C        2.25495600       2.12290400      -1.91521700
H        4.36807400       0.53315000      -1.69802000
H        4.97941100       2.22191300      -1.67898100
H        5.03240200       1.20658000      -0.19909900
H        2.17316800       3.42439900       0.39639500
H        3.77788500       2.91982000       1.00686800
H        3.66943700       3.94327600      -0.45551300
H        1.26253000       2.41806500      -1.57789100
H        2.69747000       2.89812200      -2.54508600
H        2.20065100       1.17953400      -2.45794100
H        2.70533300       1.16468200      -0.13247100
N       -4.05055800       0.12976400      -0.17242600
C       -4.61982600      -1.20922200       0.12519900
C       -4.76592800       1.21983700       0.54118700
C       -4.00314300       0.38619100      -1.63948200
H       -4.24392000       2.15930400       0.35173700
H       -5.79532300       1.26158100       0.17887100
H       -4.74836900       1.00738500       1.61011700
H       -4.05198000      -1.95707900      -0.42714500
H       -4.52831800      -1.39904800       1.19431400
H       -5.67023100      -1.21360200      -0.17509800
H       -3.42611700      -0.41223200      -2.10785000
H       -5.02763600       0.39555900      -2.01860900
H       -3.51831500       1.34719900      -1.80813500
H       -3.07290000       0.16896900       0.19406000
