50
3sa1am1tma1eda-46
S        3.34238600      -1.13562700       0.17780000
O        2.72096100      -2.38067800       0.66823000
O        4.76937000      -1.14216600      -0.06322700
O        2.68267900      -0.82595800      -1.26853100
O        2.89193300       0.03279100       1.02503400
H       -0.80848900       0.34013700      -0.90245600
H        1.70174900      -0.94417200      -1.18620500
S       -0.53981700      -2.32878900      -0.22148700
O        0.09178600      -1.04336500      -0.69274800
O       -0.82428100      -2.25536900       1.22505200
O       -1.70321400      -2.71153500      -1.02749200
O        0.54493800      -3.44928200      -0.47771600
H        1.39674400      -3.18062900      -0.03697600
S       -1.55762300       1.85644900       0.44932500
O       -1.32967300       1.18028800      -1.00600900
O       -2.35061200       3.03896100       0.17175700
O       -2.23252600       0.80923400       1.26561200
O       -0.19055300       2.10386500       0.98694700
H        2.65761300       1.40594000       0.05491300
N        0.54647400      -0.17348500       2.41656700
H        1.51211700      -0.24297700       2.03131900
H        0.15546200       0.71706800       2.05015700
H       -0.02229400      -0.96563000       2.04600700
H        0.54815100      -0.18345800       3.43141400
N        2.82433700       2.27457600      -0.50977100
C        4.23240200       2.16896700      -0.97365100
C        1.87003300       2.30227800      -1.64815000
C        2.62069700       3.42758900       0.40441200
H        0.85497300       2.30437800      -1.25379500
H        2.05348400       3.20454800      -2.23588200
H        2.03575100       1.41261400      -2.25460700
H        4.88107700       2.06769600      -0.10377100
H        4.33023000       1.27662400      -1.59171600
H        4.48610000       3.06571200      -1.54284900
H        3.29258600       3.31575700       1.25625800
H        2.84951100       4.35009200      -0.13368900
H        1.58156000       3.42006000       0.73623800
C       -5.25334000       0.77514300      -0.61436200
N       -6.23860900       0.08381200       0.22064400
C       -4.27907600      -0.25008500      -1.18432700
N       -3.72300600      -1.04023500      -0.05663000
H       -7.02781700      -0.24783700      -0.32290700
H       -6.59965100       0.68677600       0.94943100
H       -5.69136600       1.34516700      -1.44268100
H       -4.69558400       1.48355900       0.00536100
H       -3.44725300       0.23178500      -1.69995900
H       -4.77734100      -0.94463500      -1.86599400
H       -3.13071800      -0.41036600       0.53882200
H       -3.12359300      -1.82102700      -0.38483000
H       -4.50727100      -1.37003000       0.51371800
50
3sa1am1tma1eda-60
S       -1.13422000      -2.23266900      -0.37897700
O       -1.55608700      -2.26399100       1.04019500
O       -2.22632000      -2.39083000      -1.32805600
O       -0.29837800      -1.00011500      -0.63111100
O       -0.14243000      -3.44481800      -0.63016300
H        0.70287200      -3.29041800      -0.13252400
H       -0.73988400       0.51234600      -1.01025200
S        2.83071300      -1.44479900       0.30918400
O        2.39795900      -0.32318300       1.22740000
O        2.12786600      -2.69058700       0.66228000
O        2.29208700      -0.99169400      -1.14187700
O        4.27298600      -1.49997200       0.15117700
H        4.86972200       0.26080600      -1.35990400
H        1.30296300      -1.04434900      -1.12561400
S       -1.30513300       2.29131700       0.09083200
O       -1.82893400       1.24292300       1.04041800
O       -0.04855300       2.87182100       0.59742600
O       -0.92963400       1.46488800      -1.23633800
O       -2.33362100       3.23419900      -0.32337500
N       -0.07212700      -0.42160400       2.38700300
H        0.89170900      -0.40749600       1.97624900
H       -0.56223900      -1.27871400       2.05107900
H       -0.02799400      -0.38978400       3.40053100
H       -0.63267800       0.36677200       2.00638600
N       -4.16968100       0.29646100      -0.03226000
C       -4.99611000       1.42891200       0.46245700
C       -4.03446700       0.33075300      -1.51659200
C       -4.67216800      -1.01881000       0.44401200
H       -3.38811300      -0.49311900      -1.82198500
H       -5.02847300       0.21781800      -1.95498300
H       -3.59500900       1.28735100      -1.80003900
H       -5.04408600       1.37762900       1.55050900
H       -4.51474900       2.36052200       0.16116500
H       -5.99822200       1.34703700       0.03657300
H       -4.64883200      -1.02910300       1.53383000
H       -5.69632500      -1.14883600       0.08748400
H       -4.02661100      -1.80457900       0.05190200
H       -3.21858300       0.46129000       0.37383300
C        4.85012700       1.85953700      -0.06393300
C        3.62677600       2.75870000       0.14262500
N        2.42590100       1.98386400      -0.24914800
N        4.79903200       1.27297400      -1.39974500
H        5.51433200       1.63137100      -2.01763400
H        2.57864900       1.63703800      -1.20397700
H        4.83443700       1.06041900       0.68384100
H        5.75399400       2.45365300       0.10924500
H        3.67201100       3.64783200      -0.49102300
H        3.51479300       3.06694400       1.18401200
H        1.53146700       2.49770700      -0.15511300
H        2.35075600       1.13273500       0.35361400
50
3sa1am1tma1eda-113
S        1.22889200       2.29370500       0.22734400
O        1.78559800       1.20051900       1.10283700
O        2.25078100       3.23891300      -0.19950700
O        0.76005100       1.52448000      -1.10716400
O        0.00872500       2.87425200       0.81512600
H       -1.26235500      -0.96685000      -1.08952200
H        0.69683400       0.54369000      -0.93800500
S       -2.81446500      -1.46817000       0.31824900
O       -2.23712800      -0.78683400      -1.05949700
O       -2.12388600      -2.76390800       0.43670100
O       -2.39762600      -0.51234900       1.38823600
O       -4.25283600      -1.49402000       0.10878700
H       -5.16134300       0.45619600       0.37703600
H       -0.87638300      -0.56892300       2.04218700
S        1.18220900      -2.24900900      -0.46679900
O        0.34626400      -1.00742900      -0.66771300
O        2.28589200      -2.35488100      -1.41018300
O        1.58833300      -2.34843500       0.95308400
O        0.19564600      -3.44640100      -0.79231900
H       -0.66719900      -3.30335000      -0.32166000
H        3.19647600       0.49249000       0.40440000
N        0.10579300      -0.58061000       2.41696900
H        0.63327200       0.23947000       2.06093100
H        0.60213300      -1.40856200       2.02393800
H        0.09723000      -0.59993300       3.43184200
N        4.14161700       0.36515000      -0.02784600
C        3.96706200       0.45648100      -1.50566600
C        4.95676500       1.49437500       0.49240500
C        4.68384400      -0.95685600       0.38242200
H        5.03104000       1.40166800       1.57626400
H        5.95027600       1.44923500       0.04164900
H        4.45075900       2.42681600       0.23818300
H        3.33563200      -0.37207700      -1.82963000
H        3.49817300       1.41335600      -1.73707800
H        4.95147800       0.38784700      -1.97374200
H        4.04776300      -1.74120200      -0.02796200
H        5.70192200      -1.04860300      -0.00224200
H        4.68710000      -1.01135000       1.47120500
C       -4.64504600       1.81867300      -1.08717100
C       -3.37089800       2.66758100      -0.99399000
N       -2.42277800       1.93828100      -0.12164400
N       -5.08125800       1.46291000       0.25818900
H       -5.94647200       1.90929700       0.52852500
H       -2.93981200       1.64728300       0.72240800
H       -4.42421200       0.90938500      -1.65639200
H       -5.40007400       2.37930100      -1.64816000
H       -3.57390600       3.63399800      -0.52702600
H       -2.90262600       2.82829700      -1.96700400
H       -1.56275700       2.45214200       0.15383600
H       -2.14162300       1.05305500      -0.56946300
