31
1sa1nta1ma1eda-111
S        0.11881300      -1.63014600      -0.30333500
O       -0.01860000      -0.78598000      -1.67897200
O        0.13375700      -0.58609500       0.77306600
O       -1.05467200      -2.48389000      -0.29598900
O        1.43208100      -2.31448500      -0.34883200
H        2.64396600      -1.30811700       0.19573100
N        1.26799300       2.04079700      -0.51555000
O        0.20721300       2.52883400      -0.95212800
O        1.72830200       2.35163900       0.58632100
O        1.88073900       1.17632500      -1.22817300
H        0.66716900      -0.07671800      -1.69842400
H       -3.27366800       1.68046200      -0.86827500
H       -2.10775400       0.41914800      -1.34707000
H       -4.31797600      -0.57613100      -0.64988200
H       -2.97745800      -1.11283400       0.35835900
H       -5.06345400       0.79298900       1.12301400
H       -4.42125200      -0.43979700       1.98288200
H       -1.18280400       2.09280800       0.18420200
H       -2.29119300       1.52198700       1.36293800
C       -2.69591500       0.81982600      -0.51990900
C       -3.59225600      -0.24441100       0.10235700
N       -1.75074200       1.29940900       0.52228900
N       -4.20248600       0.29498300       1.32132100
H       -1.05542900       0.53393100       0.74115800
N        3.23791800      -0.48414400       0.47889700
H        4.20283600      -0.65296400       0.20488800
C        3.10404200      -0.21025200       1.92938700
H        3.62141100       0.71691900       2.17153200
H        2.04037200      -0.10792800       2.13660600
H        3.52015700      -1.04661300       2.49139500
H        2.85950700       0.30612100      -0.09775500
31
1sa1nta1ma1eda-208
S        0.08018600      -1.73476500      -0.22305900
O       -0.31621400      -0.94639100      -1.58478600
O       -1.00370200      -2.67650300      -0.02517000
O        1.41992600      -2.32540200      -0.45894700
O        0.17833800      -0.64823900       0.80177400
H        2.58970700      -1.22528000      -0.19512400
H       -0.99993500       0.52841300       0.71825700
N        1.17300100       2.23963200      -0.39945500
O        2.38693100       2.07215400      -0.13962400
O        0.49537700       3.03483100       0.28067300
O        0.63636200       1.60955200      -1.34153100
H        0.19833200      -0.11142500      -1.61710200
H       -3.24848200       1.96823300      -0.60769400
H       -2.06725800       0.89424300      -1.39590900
H       -4.22867100      -0.30960500      -0.89502000
H       -2.84451000      -1.02772500      -0.07340500
H       -4.97506800       0.52651300       1.16664700
H       -4.18520700      -0.79583100       1.71902500
H       -1.09767700       2.17237900       0.46979400
H       -2.21923200       1.37878200       1.48906500
C       -2.63687500       1.07009900      -0.48420500
C       -3.48458200      -0.14039800      -0.10733400
N       -1.67955000       1.32700700       0.61978600
N       -4.06789100       0.07723500       1.21968400
N        3.26652300      -0.48033200       0.13181700
H        4.17018200      -0.63116800      -0.31060300
C        3.35578900      -0.52422400       1.61167100
H        3.98723600       0.29146200       1.96274200
H        2.34309500      -0.41227300       1.99747600
H        3.76309100      -1.48684600       1.92008300
H        2.90471400       0.45867900      -0.16201300
31
1sa1nta1ma1eda-197
S        0.24100600      -1.58322200      -0.24484100
O        1.55162500      -2.20744000      -0.13675400
O       -0.02602700      -0.57957800       0.85334500
O        0.37001200      -0.66538600      -1.57395000
O       -0.91618200      -2.46939100      -0.42038200
H       -2.61790500      -1.69740300       0.31140300
N       -1.52830600       1.88554900      -0.61701500
O       -0.57668300       2.58579700      -0.99775100
O       -2.11708800       2.09766100       0.45118800
O       -1.89808800       0.89710900      -1.34213600
H       -0.45172000      -0.12980800      -1.68884400
H        3.43511700       2.38060100       0.78653400
H        2.45382500       1.77231200       2.14586600
H        4.46490600       0.28149300       1.59269600
H        2.91045000      -0.55592700       1.50670500
H        4.69507000      -0.10845900      -0.65553500
H        3.30643100      -1.01608500      -0.60026100
H        1.09973400       2.34705400       0.06951600
H        1.96253800       1.12609200      -0.67532800
C        2.79851600       1.56217100       1.13146200
C        3.52658600       0.21489100       1.03244900
N        1.62560800       1.48237100       0.23244400
N        3.72504400      -0.11811300      -0.37313000
H        0.94164400       0.75851000       0.57362500
N       -2.80189900      -0.74127800       0.64027000
H       -1.96414600      -0.50742500       1.19382600
C       -4.07341800      -0.53993200       1.35695100
H       -4.15472400       0.51589800       1.61315100
H       -4.89996200      -0.82402300       0.70600000
H       -4.08854300      -1.15054100       2.25974100
H       -2.70259100      -0.11338200      -0.19326800
