40
4sa3am-29
S       -3.32804500       1.41652700      -0.35266500
O       -2.98425600       2.48052600       0.58767400
O       -2.28651300       1.18507900      -1.38934800
O       -3.77674600       0.15481300       0.27636100
O       -4.57781700       1.92283300      -1.24804100
H       -5.32329000       2.10818500      -0.65962500
H       -3.03016800      -0.42863200       1.67244100
S        1.35397800      -1.53232500      -1.71325500
O        1.79243800      -2.34376800      -0.58284400
O        0.59466500      -2.18512100      -2.76346700
O        0.51290700      -0.32221100      -1.17178400
O        2.56399700      -0.82145200      -2.38833700
H        3.08163100      -0.30730400      -1.68967000
H        0.15446700      -0.45614500      -0.20377900
S        3.20527300       1.53920900       0.32150300
O        3.75550100       0.38124200      -0.42310200
O        2.53701600       2.52720000      -0.53955000
O        2.40776600       1.15656700       1.49873700
O        4.48881700       2.26633500       0.97909500
H        5.09328800       2.53218400       0.27181900
S       -1.19423100      -1.48946900       1.70528400
O       -2.45359400      -0.82472300       2.38141000
O       -0.38963900      -0.34821600       1.11565700
O       -0.45357500      -2.12733800       2.79292900
O       -1.65304500      -2.38676800       0.63215300
N        2.19440600      -1.53131200       2.08597000
H        2.18926800      -1.91730000       1.12616800
H        1.28683100      -1.77746600       2.53060000
H        2.97769800      -1.90460900       2.61454700
H        2.27678900      -0.49575800       1.99190500
N       -2.12507800      -1.53571900      -1.93232100
H       -2.97962600      -1.88449300      -2.35784900
H       -1.29496500      -1.83421900      -2.46441300
H       -2.15818700      -0.49485200      -1.87092900
H       -2.03975500      -1.89832400      -0.95410400
N       -0.16990200       2.33160600       0.13375500
H        0.79979700       2.56862600      -0.15192500
H       -0.68598600       3.12459700       0.51181300
H       -0.71916400       1.96064700      -0.65921900
H       -0.13958300       1.58978500       0.84615700
40
4sa3am-7
S       -1.19386200      -1.92256800      -1.44004000
O       -1.71894000      -2.41665600      -0.17056000
O       -0.42265600      -2.83735100      -2.25945200
O       -2.35184100      -1.36673400      -2.32681000
O       -0.31257800      -0.65477600      -1.17360200
H       -0.14791500      -0.47347800      -0.17214800
H       -2.87647300      -0.69437800      -1.79407500
S        0.95999600      -0.97253800       2.08607600
O        1.51662700      -2.07927700       1.29726500
O        0.13462000      -0.06176300       1.19254200
O        0.18349300      -1.34770500       3.26615800
O        2.14535800      -0.07471500       2.61665200
H        2.75818900       0.12641200       1.85563300
S        3.39069400       1.20915900      -0.70641200
O        2.88676100       0.54819100      -1.92600700
O        2.66897300       2.45280000      -0.37835700
O        3.56241600       0.27160800       0.41631100
O        4.91206000       1.66310000      -1.01501300
H        4.89260800       2.36183000      -1.68362800
S       -3.16574800       1.55853700      -0.16301600
O       -2.68879100       1.48371300       1.22980800
O       -2.25718400       2.29298000      -1.05596900
O       -3.60143300       0.24962800      -0.70207700
O       -4.51378100       2.44002400      -0.02691300
H       -4.91236600       2.53708600      -0.90320500
N        2.28619100      -2.08447200      -1.37326500
H        2.48109500      -1.10415200      -1.68362600
H        3.10422000      -2.66485000      -1.53844400
H        2.07563700      -2.06347900      -0.35216800
H        1.46578700      -2.46158900      -1.86839300
N        0.07463300       2.60464900       0.47613000
H        0.01113600       1.71633700       1.00385500
H       -0.68227800       2.59628500      -0.23403100
H       -0.06425300       3.39010100       1.10575200
H        1.02455600       2.63569700       0.04796700
N       -2.42840900      -1.09352000       2.20673500
H       -3.25052600      -1.43552200       2.69610700
H       -1.57246100      -1.20383200       2.78382500
H       -2.28649900      -1.62356300       1.32812600
H       -2.54943700      -0.09147200       1.94372200
40
4sa3am-17
S        3.31185900      -1.40042500      -1.05371200
O        2.33663200      -1.23711900      -2.11767800
O        4.68304900      -1.71499200      -1.32966800
O        3.28430000      -0.04032800      -0.18951900
O        2.79638700      -2.44624900       0.00057800
H        1.79566900      -2.40966900       0.09695400
H        2.61638400       0.61466100      -0.55506900
S       -0.31243900      -1.46233100       1.42973900
O       -0.51443400      -0.03174300       1.08895600
O        0.20758800      -2.18391900       0.22705600
O        0.52561200      -1.65395100       2.62178100
O       -1.70748900      -2.08709800       1.79129000
H       -2.34028700      -1.96869000       1.02087800
S       -3.81475500      -0.39028000      -0.70394800
O       -3.23020000      -1.69055900      -0.30412400
O       -4.31614600       0.39215000       0.44363500
O       -2.96737800       0.38996500      -1.61665700
O       -5.09552100      -0.75420800      -1.61519900
H       -5.67715000      -1.34089700      -1.11180800
S        0.97118900       2.77507800      -0.08386300
O       -0.40430200       3.15614600      -0.42330800
O        1.24430200       2.58577400       1.34480400
O        1.45290300       1.65120900      -0.94076300
O        1.90969300       4.03347800      -0.45818500
H        1.71776400       4.30855600      -1.36598900
N       -2.28278600       2.00763300       1.30434800
H       -2.44013300       2.57036000       2.13490800
H       -3.16962500       1.57600500       0.96195400
H       -1.81786400       2.57043700       0.57209100
H       -1.63036900       1.22181900       1.50009900
N       -0.33317100      -0.37823800      -1.92000300
H       -1.33745400      -0.10595000      -1.90235600
H       -0.02668800      -0.66152900      -2.84687900
H        0.25144300       0.41079500      -1.60135300
H       -0.17607300      -1.15979400      -1.26126400
N        2.40453300       0.33367300       2.46975400
H        3.00040100       0.03060400       1.68592800
H        2.96875500       0.55242400       3.28613800
H        1.89344200       1.17961400       2.13739200
H        1.71812600      -0.43132700       2.67421800
