64
4sa2ma1dma1eda-27
S        2.02889500       2.67104600       0.13142500
O        3.11805900       2.22563300       1.02022500
O        1.98599200       4.07663700      -0.23756900
O        2.23211100       1.89623100      -1.26557400
O        0.69726400       2.18444300       0.63988200
H        0.68138000       1.45440700       2.14628600
H        2.66510600       1.01259100      -1.13073900
S        2.50493300      -1.72042000      -1.36710600
O        1.33295400      -1.37139600      -2.19229300
O        3.27828000      -0.52463400      -0.95081900
O        2.23110900      -2.64734900      -0.26491600
O        3.49427000      -2.57815200      -2.31982200
H        3.73660100      -2.03543100      -3.08301900
S       -3.73131800      -0.86201200      -0.52993200
O       -4.79950300      -1.66530300      -1.07850700
O       -3.78602500      -1.09926600       1.05567900
O       -2.35192300      -1.31353800      -0.94031500
O       -3.83529600       0.60408600      -0.75220000
H       -3.03364200       1.89668600       0.01825100
S       -0.39382800      -0.36408600       2.27925100
O        0.29138200      -0.83637800       1.04925000
O       -0.49847300      -1.36199900       3.33047900
O        0.56066300       0.78947200       2.87847900
O       -1.67050400       0.33195000       1.94352700
H       -3.04275400      -0.60507200       1.48012500
N       -2.37840500       2.56733900       0.47831800
H       -1.76865100       2.99749800      -0.26366000
H       -1.80726400       1.96656100       1.09209100
C       -3.09263400       3.59477700       1.26133400
H       -3.73231600       4.17423700       0.59552400
H       -3.70383200       3.10611300       2.01967200
H       -2.36579000       4.25085800       1.74031900
C        4.25229100      -1.18449900       2.01454900
N        2.99359200      -0.41017800       1.95186500
H        2.56588000      -0.25433700       2.86713800
H        3.13022600       0.53699400       1.53603900
H        4.04382700      -2.17284300       2.42174400
H        4.63937300      -1.27460500       1.00172000
H        4.96387700      -0.65443200       2.64705300
H        2.27074900      -0.88096300       1.38333900
C       -0.56557000      -4.08350500      -1.34015200
N       -0.61702100      -3.24182900      -0.12533600
C       -1.06881400      -3.95117800       1.09328200
H        0.31208300      -2.82539500       0.03910800
H       -1.56810800      -4.45647000      -1.55283800
H       -0.21155100      -3.46630500      -2.16554500
H        0.12504000      -4.91112800      -1.17370300
H       -2.09850300      -4.27964000       0.94617900
H       -0.41965800      -4.81105500       1.26557200
H       -1.01288400      -3.26666200       1.94074400
H       -1.26953300      -2.44971600      -0.31286900
C       -0.49813400       2.76102500      -2.78208200
N       -0.80793200       3.69238600      -1.67803600
C       -1.13625500       1.39287300      -2.57517400
N       -0.52546200       0.62967900      -1.45264300
H       -1.28665700       4.51163000      -2.03564800
H        0.05066700       4.02738000      -1.23892900
H       -0.88054300       3.15346700      -3.72936500
H        0.58461400       2.65220300      -2.88753100
H       -1.02873900       0.78085200      -3.47346800
H       -2.20380900       1.48390700      -2.35926300
H        0.29417400       0.08274500      -1.75814700
H       -1.20762400      -0.07863900      -1.10020700
H       -0.20226900       1.21989800      -0.66793800
64
4sa2ma1dma1eda-31
S        0.72385400       3.48612700      -0.39698500
O        0.31729800       3.46360600       1.02035300
O        2.10652600       3.01511700      -0.59072900
O       -0.26505800       2.85735700      -1.29670300
O        0.69121600       5.02635900      -0.87975900
H        1.39397500       5.50934500      -0.42267500
S       -3.48958500      -1.47343300      -1.21859700
O       -2.66187200      -0.33627900      -1.71955400
O       -3.64277600      -1.34200500       0.27018200
O       -4.72814400      -1.69478500      -1.92608100
O       -2.60229300      -2.79307000      -1.44914100
H       -1.77544400      -2.70327600      -0.91994800
S        3.56120000      -0.11401300      -0.69119500
O        2.18397800      -0.66383600      -0.40537500
O        4.05381900       0.60895200       0.49850000
O        4.44113500      -1.12434200      -1.25402400
O        3.33254100       0.96852800      -1.84934700
H        2.92372000       1.77685500      -1.45562900
S       -0.50056400      -1.59822700       1.35519500
O       -0.51700700      -0.11255800       1.18735600
O       -0.39298300      -2.27594000       0.03571200
O        0.53737000      -2.03756300       2.29988400
O       -1.87711600      -2.00529800       1.99842300
H       -2.62074200      -1.79764400       1.33585600
C        1.95611500       0.85082000       3.44187900
N        1.79570100       1.22321200       2.02124700
H        2.67572300       1.08652000       1.48014400
H        1.06044300       0.63572200       1.58505900
H        2.76117300       1.43815000       3.88277700
H        1.02057000       1.03886000       3.96797600
H        2.18476200      -0.21248500       3.49762900
H        1.47243400       2.19202900       1.89364700
C        0.45958400      -0.37341900      -3.33509900
N        0.01885000       0.09046000      -2.00181800
H        0.03172500       1.11766600      -1.92756600
H       -0.96006900      -0.21195900      -1.80645900
H        1.48870000      -0.05339500      -3.49822300
H        0.39860500      -1.46102500      -3.36088700
H       -0.19918600       0.04571000      -4.09485700
H        0.65745700      -0.27256200      -1.27333000
C        3.73957800      -3.25525600       1.14961900
N        2.39356200      -3.19511300       0.53722800
C        2.11171000      -4.26528100      -0.44127300
H        1.67187400      -3.15856500       1.27428100
H        4.48746800      -3.13947600       0.36474200
H        3.83350200      -2.42868000       1.85438900
H        3.86005100      -4.20699100       1.66924900
H        2.82457200      -4.18067400      -1.26253200
H        2.21132300      -5.23806800       0.04278200
H        1.09402000      -4.12890500      -0.80508000
H        2.28490200      -2.26068700       0.07169700
C       -4.10466800       1.51140200       1.92361400
N       -5.05035600       1.20482800       0.85860500
C       -2.99182700       2.40142600       1.36911900
N       -2.39726800       1.70997200       0.20266200
H       -5.96743400       1.60130100       1.00744100
H       -5.12573400       0.20697000       0.69198100
H       -4.57316900       2.02653800       2.76905400
H       -3.65937600       0.58925500       2.31395900
H       -2.19561000       2.59393600       2.09055300
H       -3.39666500       3.35362400       1.01957000
H       -1.83356300       0.89724800       0.51058300
H       -1.76629400       2.30624700      -0.35329800
H       -3.14164200       1.34556100      -0.40779200
64
4sa2ma1dma1eda-33
S       -0.02328100       3.41492100      -0.15460200
O       -0.50582800       3.03914000       1.19865700
O        1.44706500       3.31554400      -0.24322000
O       -0.77106500       2.76048800      -1.23145200
O       -0.37802800       4.97799000      -0.35825700
H        0.24724900       5.50654500       0.15670900
S       -3.23113000      -1.87514600      -0.80702800
O       -2.51411600      -0.80306500      -1.54103000
O       -3.12642000      -1.61972400       0.67235200
O       -4.58823700      -2.11673500      -1.25667300
O       -2.41737400      -3.23159000      -1.06760300
H       -1.49148500      -3.08775800      -0.76041600
S        3.58172700       0.64421700      -0.77294300
O        2.39261500      -0.24913700      -0.51043200
O        3.95223400       1.34340900       0.47377200
O        4.64362700      -0.05919400      -1.47138800
O        3.03438700       1.75221500      -1.79338900
H        2.48314600       2.40213100      -1.29401100
S        0.02783100      -1.84899600       1.29254800
O       -0.27225300      -0.39439100       1.21106900
O        0.04544600      -2.47134800      -0.05915900
O        1.24541500      -2.14617800       2.06749300
O       -1.15178000      -2.51642800       2.11193600
H       -2.00599200      -2.28521100       1.64091000
C        1.99487300       0.88394200       3.46987300
N        1.68332900       1.33095200       2.09681400
H        1.06481700       0.63332500       1.63426200
H        1.15399800       2.20837900       2.06812700
H        2.44740600      -0.10516300       3.41400800
H        2.67936700       1.59101700       3.93802700
H        1.07003500       0.81748200       4.04243700
H        2.54284200       1.43561400       1.51745900
C        0.43275000      -0.24321900      -3.25895000
N        0.00872100       0.11434400      -1.89053800
H       -0.21641700       1.11674200      -1.80669500
H       -0.85264900      -0.39984100      -1.61645300
H        1.33611500       0.31408600      -3.50728100
H        0.63628100      -1.31334100      -3.29174900
H       -0.36929300      -0.00330700      -3.95626000
H        0.77030500      -0.08730000      -1.22153300
C        4.50731500      -2.66565600       0.60541000
N        3.11539600      -2.76628100       0.11491200
C        2.89256600      -3.79651900      -0.91907800
H        2.46321200      -2.88639500       0.90991100
H        5.15373400      -2.37736800      -0.22398200
H        4.54682700      -1.89002300       1.37064500
H        4.81521000      -3.62406200       1.02630600
H        3.50233100      -3.55574900      -1.79107700
H        3.17406500      -4.77465900      -0.52570500
H        1.83394000      -3.78759300      -1.17693300
H        2.83227800      -1.82519500      -0.25420900
C       -5.13971200       0.92403100       0.81126300
N       -5.11463600       1.13266400      -0.63151100
C       -3.92332800       1.61144100       1.44078400
N       -2.70753800       1.20140300       0.69765400
H       -5.76275700       1.84348000      -0.94319400
H       -5.28573900       0.27486700      -1.14585900
H       -6.04421700       1.31296700       1.29364100
H       -5.08690200      -0.14703200       1.02155900
H       -3.79938600       1.34115100       2.49131700
H       -3.99796200       2.69869600       1.35827800
H       -2.48362900       0.20651900       0.85924900
H       -1.88697700       1.78271100       0.92496200
H       -2.92128600       1.28066100      -0.30859000
