1sa_1w.log
 OpenBabel02281909513D
Gaussian users/kemi/kmacke/programs/G09D/g09/g09 # opt freq 6-31++g(d,p) wb97xd
 10  8  0  0  0  0  0  0  0  0999 V2000
   -0.5872   -0.0696    0.1338 S   0  0  0  0  0  0  0  0  0  0  0  0
   -0.9509    1.2945   -0.6398 O   0  0  0  0  0  0  0  0  0  0  0  0
    0.3392   -0.8194   -0.9031 O   0  0  0  0  0  0  0  0  0  0  0  0
    0.2115    0.3527    1.2632 O   0  0  0  0  0  0  0  0  0  0  0  0
   -1.7895   -0.8452    0.2775 O   0  0  0  0  0  0  0  0  0  0  0  0
   -1.6721    1.1212   -1.2622 H   0  0  0  0  0  0  0  0  0  0  0  0
    1.2871   -0.5345   -0.7591 H   0  0  0  0  0  0  0  0  0  0  0  0
    3.4362   -0.4794    0.0908 H   0  0  0  0  0  0  0  0  0  0  0  0
    2.6903    0.0907   -0.1147 O   0  0  0  0  0  0  0  0  0  0  0  0
    2.3394    0.4189    0.7256 H   0  0  0  0  0  0  0  0  0  0  0  0
  1  5  2  0  0  0  0
  1  4  2  0  0  0  0
  2  1  1  0  0  0  0
  3  7  1  0  0  0  0
  3  1  1  0  0  0  0
  6  2  1  0  0  0  0
  9  8  1  0  0  0  0
  9 10  1  0  0  0  0
M  END
$$$$
