4sa_3w.log
 OpenBabel02281909513D
Gaussian users/kemi/kmacke/programs/G09D/g09/g09 # opt freq 6-31++g(d,p) wb97xd
 37 29  0  0  0  0  0  0  0  0999 V2000
   -0.1958   -2.3473    0.3458 S   0  0  0  0  0  0  0  0  0  0  0  0
   -0.3482   -1.6506   -0.9479 O   0  0  0  0  0  0  0  0  0  0  0  0
   -1.2268   -3.5526    0.3657 O   0  0  0  0  0  0  0  0  0  0  0  0
    1.1113   -2.9324    0.5860 O   0  0  0  0  0  0  0  0  0  0  0  0
   -2.1265   -3.1994    0.1899 H   0  0  0  0  0  0  0  0  0  0  0  0
    3.1473    0.3370   -0.4568 S   0  0  0  0  0  0  0  0  0  0  0  0
    2.8579   -0.2351    0.8594 O   0  0  0  0  0  0  0  0  0  0  0  0
    1.9978   -0.0629   -1.4604 O   0  0  0  0  0  0  0  0  0  0  0  0
    3.3837    1.7689   -0.5048 O   0  0  0  0  0  0  0  0  0  0  0  0
    1.1218    0.2289   -1.1141 H   0  0  0  0  0  0  0  0  0  0  0  0
    0.1109    2.5687    0.4441 S   0  0  0  0  0  0  0  0  0  0  0  0
   -1.1333    3.4354    0.2771 O   0  0  0  0  0  0  0  0  0  0  0  0
   -0.0461    1.2778   -0.2318 O   0  0  0  0  0  0  0  0  0  0  0  0
    0.4672    2.4831    1.8592 O   0  0  0  0  0  0  0  0  0  0  0  0
    1.1876    3.4329   -0.3145 O   0  0  0  0  0  0  0  0  0  0  0  0
    2.0493    2.9480   -0.3580 H   0  0  0  0  0  0  0  0  0  0  0  0
   -0.6416   -1.4417    1.4773 O   0  0  0  0  0  0  0  0  0  0  0  0
   -2.7063    2.5961   -1.4331 O   0  0  0  0  0  0  0  0  0  0  0  0
    1.0275    0.0451    2.6291 O   0  0  0  0  0  0  0  0  0  0  0  0
    3.5539   -2.8196   -0.8302 O   0  0  0  0  0  0  0  0  0  0  0  0
    0.3323   -0.5983    2.2244 H   0  0  0  0  0  0  0  0  0  0  0  0
    0.7246    0.9869    2.4842 H   0  0  0  0  0  0  0  0  0  0  0  0
    1.8364   -0.0562    2.0468 H   0  0  0  0  0  0  0  0  0  0  0  0
    4.1084   -1.4388   -1.0101 H   0  0  0  0  0  0  0  0  0  0  0  0
    2.7389   -2.8536   -0.2896 H   0  0  0  0  0  0  0  0  0  0  0  0
    3.3574   -3.3011   -1.6395 H   0  0  0  0  0  0  0  0  0  0  0  0
   -2.4643    1.6870   -1.6875 H   0  0  0  0  0  0  0  0  0  0  0  0
   -3.6241    2.5356   -1.1367 H   0  0  0  0  0  0  0  0  0  0  0  0
   -1.8076    3.0819   -0.4656 H   0  0  0  0  0  0  0  0  0  0  0  0
    4.3261   -0.4242   -1.0843 O   0  0  0  0  0  0  0  0  0  0  0  0
   -3.4588   -0.5294   -0.2959 S   0  0  0  0  0  0  0  0  0  0  0  0
   -2.4479   -0.2065   -1.4862 O   0  0  0  0  0  0  0  0  0  0  0  0
   -2.7487    0.0899    0.9690 O   0  0  0  0  0  0  0  0  0  0  0  0
   -4.6293    0.2626   -0.5526 O   0  0  0  0  0  0  0  0  0  0  0  0
   -3.5252   -1.9732   -0.1399 O   0  0  0  0  0  0  0  0  0  0  0  0
   -1.9729   -0.4813    1.2338 H   0  0  0  0  0  0  0  0  0  0  0  0
   -1.6086   -0.7478   -1.3708 H   0  0  0  0  0  0  0  0  0  0  0  0
  1  3  1  0  0  0  0
  1  4  2  0  0  0  0
  1 17  1  0  0  0  0
  2  1  2  0  0  0  0
  5  3  1  0  0  0  0
  6  7  2  0  0  0  0
  8 10  1  0  0  0  0
  8  6  1  0  0  0  0
  9  6  2  0  0  0  0
 11 14  2  0  0  0  0
 12 11  1  0  0  0  0
 13 11  2  0  0  0  0
 15 11  1  0  0  0  0
 16 15  1  0  0  0  0
 18 28  1  0  0  0  0
 20 25  1  0  0  0  0
 22 19  1  0  0  0  0
 23 19  1  0  0  0  0
 26 20  1  0  0  0  0
 27 18  1  0  0  0  0
 29 12  1  0  0  0  0
 30 24  1  0  0  0  0
 30  6  1  0  0  0  0
 31 35  2  0  0  0  0
 31 33  1  0  0  0  0
 32 37  1  0  0  0  0
 32 31  1  0  0  0  0
 33 36  1  0  0  0  0
 34 31  2  0  0  0  0
M  RAD  2  17   2  21   2
M  END
$$$$
