Gly.log
 OpenBabel02281910183D
Gaussian users/kemi/kmacke/programs/G09D/g09/g09 # opt freq pw91pw91/6-31+g(d) g
 10  9  0  0  0  0  0  0  0  0999 V2000
    1.9816    0.0107    0.0000 N   0  0  0  0  0  0  0  0  0  0  0  0
    2.0233    0.6280    0.8172 H   0  0  0  0  0  0  0  0  0  0  0  0
    0.7328   -0.7309   -0.0000 C   0  0  0  0  0  0  0  0  0  0  0  0
   -0.5438    0.1108    0.0000 C   0  0  0  0  0  0  0  0  0  0  0  0
    0.6973   -1.3989   -0.8786 H   0  0  0  0  0  0  0  0  0  0  0  0
    0.6973   -1.3990    0.8785 H   0  0  0  0  0  0  0  0  0  0  0  0
   -0.5906    1.3318    0.0000 O   0  0  0  0  0  0  0  0  0  0  0  0
   -1.6609   -0.6752   -0.0001 O   0  0  0  0  0  0  0  0  0  0  0  0
   -2.4338   -0.0642   -0.0001 H   0  0  0  0  0  0  0  0  0  0  0  0
    2.0233    0.6281   -0.8170 H   0  0  0  0  0  0  0  0  0  0  0  0
  1  2  1  0  0  0  0
  3  4  1  0  0  0  0
  3  1  1  0  0  0  0
  3  6  1  0  0  0  0
  4  7  2  0  0  0  0
  5  3  1  0  0  0  0
  8  9  1  0  0  0  0
  8  4  1  0  0  0  0
 10  1  1  0  0  0  0
M  END
$$$$
