Gly_2sa.log
 OpenBabel02281910183D
Gaussian users/kemi/kmacke/programs/G09D/g09/g09 # opt freq wb97xd 6-31++g(d,p)
 24 21  0  0  0  0  0  0  0  0999 V2000
   -2.1905   -1.5135    0.0151 S   0  0  0  0  0  0  0  0  0  0  0  0
   -2.9933   -2.6850    0.1865 O   0  0  0  0  0  0  0  0  0  0  0  0
   -0.9753   -1.5975   -0.8049 O   0  0  0  0  0  0  0  0  0  0  0  0
   -3.1026   -0.3748   -0.5737 O   0  0  0  0  0  0  0  0  0  0  0  0
   -2.5975    0.4800   -0.6732 H   0  0  0  0  0  0  0  0  0  0  0  0
   -1.7757   -0.9852    1.4430 O   0  0  0  0  0  0  0  0  0  0  0  0
   -1.1691   -0.1916    1.3663 H   0  0  0  0  0  0  0  0  0  0  0  0
   -0.3598    2.0161   -0.0288 S   0  0  0  0  0  0  0  0  0  0  0  0
   -0.1440    1.0385    1.0729 O   0  0  0  0  0  0  0  0  0  0  0  0
    0.7623    2.0206   -0.9753 O   0  0  0  0  0  0  0  0  0  0  0  0
   -1.7031    1.8892   -0.6204 O   0  0  0  0  0  0  0  0  0  0  0  0
    1.3982    0.4382   -1.1406 H   0  0  0  0  0  0  0  0  0  0  0  0
   -0.2975    3.4839    0.6241 O   0  0  0  0  0  0  0  0  0  0  0  0
   -1.1485    3.6745    1.0433 H   0  0  0  0  0  0  0  0  0  0  0  0
    1.5341   -0.5915   -1.0044 N   0  0  0  0  0  0  0  0  0  0  0  0
    0.5785   -1.0082   -1.0112 H   0  0  0  0  0  0  0  0  0  0  0  0
    2.1928   -0.8579    0.2910 C   0  0  0  0  0  0  0  0  0  0  0  0
    3.6873   -0.9110    0.0772 C   0  0  0  0  0  0  0  0  0  0  0  0
    1.9057   -0.0796    1.0006 H   0  0  0  0  0  0  0  0  0  0  0  0
    1.8481   -1.8176    0.6849 H   0  0  0  0  0  0  0  0  0  0  0  0
    4.2000   -0.9322   -1.0177 O   0  0  0  0  0  0  0  0  0  0  0  0
    4.3501   -0.9586    1.2285 O   0  0  0  0  0  0  0  0  0  0  0  0
    5.2979   -1.0139    1.0366 H   0  0  0  0  0  0  0  0  0  0  0  0
    2.1036   -0.9612   -1.7700 H   0  0  0  0  0  0  0  0  0  0  0  0
  1  2  2  0  0  0  0
  1  6  1  0  0  0  0
  3  1  2  0  0  0  0
  4  1  1  0  0  0  0
  5  4  1  0  0  0  0
  7  6  1  0  0  0  0
  8 13  1  0  0  0  0
  8  9  1  0  0  0  0
 10  8  2  0  0  0  0
 11  8  2  0  0  0  0
 12 15  1  0  0  0  0
 13 14  1  0  0  0  0
 15 17  1  0  0  0  0
 16 15  1  0  0  0  0
 17 20  1  0  0  0  0
 17 19  1  0  0  0  0
 18 17  1  0  0  0  0
 18 22  1  0  0  0  0
 21 18  2  0  0  0  0
 23 22  1  0  0  0  0
 24 15  1  0  0  0  0
M  RAD  1   9   2
M  END
$$$$
