Gly_1sa_1w.log
 OpenBabel02281910183D
Gaussian users/kemi/kmacke/programs/G09D/g09/g09 # opt freq wb97xd 6-31++g(d,p)
 20 17  0  0  0  0  0  0  0  0999 V2000
    4.1460   -1.3704    0.6060 O   0  0  0  0  0  0  0  0  0  0  0  0
    4.2946   -0.7598   -0.1303 H   0  0  0  0  0  0  0  0  0  0  0  0
    4.8944   -1.2849    1.2026 H   0  0  0  0  0  0  0  0  0  0  0  0
    1.5350    0.4299   -0.2407 S   0  0  0  0  0  0  0  0  0  0  0  0
    0.6635    1.5482    0.0887 O   0  0  0  0  0  0  0  0  0  0  0  0
    2.8146    0.6724   -0.8686 O   0  0  0  0  0  0  0  0  0  0  0  0
    1.7576   -0.3535    1.1149 O   0  0  0  0  0  0  0  0  0  0  0  0
    2.6197   -0.8557    1.0608 H   0  0  0  0  0  0  0  0  0  0  0  0
    0.7531   -0.5778   -1.1479 O   0  0  0  0  0  0  0  0  0  0  0  0
   -0.2216   -0.6102   -0.8788 H   0  0  0  0  0  0  0  0  0  0  0  0
   -4.4789   -1.2387   -0.1225 N   0  0  0  0  0  0  0  0  0  0  0  0
   -4.0225   -2.0369    0.3046 H   0  0  0  0  0  0  0  0  0  0  0  0
   -3.9201   -0.0030    0.3652 C   0  0  0  0  0  0  0  0  0  0  0  0
   -2.4343    0.2020    0.1265 C   0  0  0  0  0  0  0  0  0  0  0  0
   -4.4379    0.8495   -0.0880 H   0  0  0  0  0  0  0  0  0  0  0  0
   -4.0897    0.0892    1.4434 H   0  0  0  0  0  0  0  0  0  0  0  0
   -1.7395   -0.6258   -0.4560 O   0  0  0  0  0  0  0  0  0  0  0  0
   -1.9888    1.3423    0.6042 O   0  0  0  0  0  0  0  0  0  0  0  0
   -1.0212    1.4496    0.4371 H   0  0  0  0  0  0  0  0  0  0  0  0
   -4.3482   -1.3257   -1.1241 H   0  0  0  0  0  0  0  0  0  0  0  0
  1  3  1  0  0  0  0
  2  1  1  0  0  0  0
  4  5  2  0  0  0  0
  4  7  1  0  0  0  0
  6  4  2  0  0  0  0
  8  7  1  0  0  0  0
  9 10  1  0  0  0  0
  9  4  1  0  0  0  0
 11 12  1  0  0  0  0
 11 13  1  0  0  0  0
 13 16  1  0  0  0  0
 14 13  1  0  0  0  0
 14 18  1  0  0  0  0
 15 13  1  0  0  0  0
 17 14  2  0  0  0  0
 19 18  1  0  0  0  0
 20 11  1  0  0  0  0
M  END
$$$$
