mGly_1sa.log
 OpenBabel02281910183D
Gaussian users/kemi/kmacke/programs/G09D/g09/g09 # opt freq wb97xd 6-31++g(d,p)
 16 14  0  0  0  0  0  0  0  0999 V2000
   -1.9848   -0.0825    0.1002 S   0  0  0  0  0  0  0  0  0  0  0  0
   -3.3512   -0.1924   -0.3680 O   0  0  0  0  0  0  0  0  0  0  0  0
   -1.7291   -0.1320    1.5327 O   0  0  0  0  0  0  0  0  0  0  0  0
   -1.1519   -1.2187   -0.6155 O   0  0  0  0  0  0  0  0  0  0  0  0
   -0.1427   -1.0893   -0.4392 H   0  0  0  0  0  0  0  0  0  0  0  0
   -1.3780    1.2390   -0.4969 O   0  0  0  0  0  0  0  0  0  0  0  0
   -0.3474    1.3016   -0.3107 H   0  0  0  0  0  0  0  0  0  0  0  0
    4.0876   -0.7249    0.1318 N   0  0  0  0  0  0  0  0  0  0  0  0
    3.9435   -1.1971   -0.7566 H   0  0  0  0  0  0  0  0  0  0  0  0
    3.2804    0.4880    0.1377 C   0  0  0  0  0  0  0  0  0  0  0  0
    1.7740    0.3146   -0.0994 C   0  0  0  0  0  0  0  0  0  0  0  0
    3.4004    0.9994    1.0988 H   0  0  0  0  0  0  0  0  0  0  0  0
    3.6559    1.1826   -0.6213 H   0  0  0  0  0  0  0  0  0  0  0  0
    1.3379   -0.8573   -0.2469 O   0  0  0  0  0  0  0  0  0  0  0  0
    1.0987    1.3801   -0.1232 O   0  0  0  0  0  0  0  0  0  0  0  0
    3.6964   -1.3660    0.8166 H   0  0  0  0  0  0  0  0  0  0  0  0
  1  3  2  0  0  0  0
  2  1  2  0  0  0  0
  4  5  1  0  0  0  0
  4  1  1  0  0  0  0
  6  7  1  0  0  0  0
  6  1  1  0  0  0  0
  8 10  1  0  0  0  0
  8 16  1  0  0  0  0
  9  8  1  0  0  0  0
 10 12  1  0  0  0  0
 11 10  1  0  0  0  0
 13 10  1  0  0  0  0
 14 11  2  0  0  0  0
 15 11  1  0  0  0  0
M  RAD  1  15   2
M  END
$$$$
