pGly_1w.log
 OpenBabel02281910183D
Gaussian users/kemi/kmacke/programs/G09D/g09/g09 # opt freq wb97xd 6-31++g(d,p)
 14 12  0  0  0  0  0  0  0  0999 V2000
   -2.2788   -0.8647   -0.4128 O   0  0  0  0  0  0  0  0  0  0  0  0
   -1.9611   -1.6745    0.0035 H   0  0  0  0  0  0  0  0  0  0  0  0
   -3.1577   -1.0401   -0.7637 H   0  0  0  0  0  0  0  0  0  0  0  0
   -0.8912    1.2989    0.3497 N   0  0  0  0  0  0  0  0  0  0  0  0
   -1.3200    2.1972    0.1222 H   0  0  0  0  0  0  0  0  0  0  0  0
    0.4207    1.1339   -0.3331 C   0  0  0  0  0  0  0  0  0  0  0  0
    1.0019   -0.2030    0.0963 C   0  0  0  0  0  0  0  0  0  0  0  0
    0.2621    1.1520   -1.4131 H   0  0  0  0  0  0  0  0  0  0  0  0
    1.0910    1.9513   -0.0596 H   0  0  0  0  0  0  0  0  0  0  0  0
    0.4281   -0.9389    0.8640 O   0  0  0  0  0  0  0  0  0  0  0  0
    2.1732   -0.4148   -0.4721 O   0  0  0  0  0  0  0  0  0  0  0  0
   -0.7832    1.2380    1.3655 H   0  0  0  0  0  0  0  0  0  0  0  0
    2.5356   -1.2675   -0.1836 H   0  0  0  0  0  0  0  0  0  0  0  0
   -1.5437    0.5125    0.0687 H   0  0  0  0  0  0  0  0  0  0  0  0
  1  2  1  0  0  0  0
  3  1  1  0  0  0  0
  4 12  1  0  0  0  0
  5  4  1  0  0  0  0
  6  9  1  0  0  0  0
  6  7  1  0  0  0  0
  6  4  1  0  0  0  0
  7 10  2  0  0  0  0
  8  6  1  0  0  0  0
 11 13  1  0  0  0  0
 11  7  1  0  0  0  0
 14  4  1  0  0  0  0
M  END
$$$$
