pGly_1sa.log
 OpenBabel02281910183D
Gaussian users/kemi/kmacke/programs/G09D/g09/g09 # opt freq wb97xd 6-31++g(d,p)
 18 16  0  0  0  0  0  0  0  0999 V2000
   -2.2862   -0.0061    0.0375 S   0  0  0  0  0  0  0  0  0  0  0  0
   -0.9345    0.2343   -0.4285 O   0  0  0  0  0  0  0  0  0  0  0  0
   -3.1150    1.0608    0.5275 O   0  0  0  0  0  0  0  0  0  0  0  0
   -3.0298   -0.7671   -1.1415 O   0  0  0  0  0  0  0  0  0  0  0  0
   -3.9118   -0.3868   -1.2848 H   0  0  0  0  0  0  0  0  0  0  0  0
   -2.1075   -1.1450    1.1257 O   0  0  0  0  0  0  0  0  0  0  0  0
   -2.9210   -1.2802    1.6388 H   0  0  0  0  0  0  0  0  0  0  0  0
    1.5119    1.3858   -0.1205 N   0  0  0  0  0  0  0  0  0  0  0  0
    1.5882    2.3220   -0.5183 H   0  0  0  0  0  0  0  0  0  0  0  0
    2.3034    0.3699   -0.8731 C   0  0  0  0  0  0  0  0  0  0  0  0
    3.3133   -0.2118    0.1061 C   0  0  0  0  0  0  0  0  0  0  0  0
    1.6331   -0.4079   -1.2434 H   0  0  0  0  0  0  0  0  0  0  0  0
    2.8120    0.8292   -1.7216 H   0  0  0  0  0  0  0  0  0  0  0  0
    3.3675    0.1656    1.2539 O   0  0  0  0  0  0  0  0  0  0  0  0
    4.0683   -1.1309   -0.4576 O   0  0  0  0  0  0  0  0  0  0  0  0
    1.8915    1.4014    0.8436 H   0  0  0  0  0  0  0  0  0  0  0  0
    4.7016   -1.4845    0.1872 H   0  0  0  0  0  0  0  0  0  0  0  0
    0.5092    1.1136   -0.0921 H   0  0  0  0  0  0  0  0  0  0  0  0
  1  3  2  0  0  0  0
  1  6  1  0  0  0  0
  2  1  2  0  0  0  0
  4  1  1  0  0  0  0
  5  4  1  0  0  0  0
  6  7  1  0  0  0  0
  8 18  1  0  0  0  0
  8 16  1  0  0  0  0
  9  8  1  0  0  0  0
 10  8  1  0  0  0  0
 10 11  1  0  0  0  0
 11 14  2  0  0  0  0
 12 10  1  0  0  0  0
 13 10  1  0  0  0  0
 15 11  1  0  0  0  0
 15 17  1  0  0  0  0
M  END
$$$$
