1di-11me-da.log
 OpenBabel02271919093D
Gaussian kemi/andersx/programs/g09/g09 # opt freq wb97xd 6-31++g(d,p)
 18 17  0  0  0  0  0  0  0  0999 V2000
    0.2236   -0.4454    0.7744 C   0  0  0  0  0  0  0  0  0  0  0  0
    1.6064    0.1488    0.5315 C   0  0  0  0  0  0  0  0  0  0  0  0
    0.3155   -1.5350    0.7189 H   0  0  0  0  0  0  0  0  0  0  0  0
   -0.7480   -0.0304   -0.2330 N   0  0  0  0  0  0  0  0  0  0  0  0
   -0.1196   -0.1876    1.7957 H   0  0  0  0  0  0  0  0  0  0  0  0
    2.2803   -0.2305    1.3078 H   0  0  0  0  0  0  0  0  0  0  0  0
    1.5696    1.2439    0.6555 H   0  0  0  0  0  0  0  0  0  0  0  0
    2.0927   -0.2807   -0.7732 N   0  0  0  0  0  0  0  0  0  0  0  0
   -1.1449    1.3590   -0.0811 C   0  0  0  0  0  0  0  0  0  0  0  0
   -1.9114   -0.9000   -0.2336 C   0  0  0  0  0  0  0  0  0  0  0  0
    2.9439    0.2024   -1.0348 H   0  0  0  0  0  0  0  0  0  0  0  0
    1.3821   -0.0901   -1.4736 H   0  0  0  0  0  0  0  0  0  0  0  0
   -1.6043   -1.9323   -0.4224 H   0  0  0  0  0  0  0  0  0  0  0  0
   -2.5989   -0.5987   -1.0295 H   0  0  0  0  0  0  0  0  0  0  0  0
   -2.4640   -0.8714    0.7255 H   0  0  0  0  0  0  0  0  0  0  0  0
   -0.2793    2.0205   -0.1674 H   0  0  0  0  0  0  0  0  0  0  0  0
   -1.6317    1.5535    0.8946 H   0  0  0  0  0  0  0  0  0  0  0  0
   -1.8485    1.6284   -0.8738 H   0  0  0  0  0  0  0  0  0  0  0  0
  1  5  1  0  0  0  0
  2  7  1  0  0  0  0
  2  1  1  0  0  0  0
  2  6  1  0  0  0  0
  3  1  1  0  0  0  0
  4  9  1  0  0  0  0
  4  1  1  0  0  0  0
  8  2  1  0  0  0  0
  9 17  1  0  0  0  0
 10  4  1  0  0  0  0
 10 15  1  0  0  0  0
 11  8  1  0  0  0  0
 12  8  1  0  0  0  0
 13 10  1  0  0  0  0
 14 10  1  0  0  0  0
 16  9  1  0  0  0  0
 18  9  1  0  0  0  0
M  END
$$$$
