1sa_1tetra-me-da.log
 OpenBabel02271919093D
Gaussian kemi/andersx/programs/g09/g09 # opt freq wb97xd 6-31++g(d,p)
 31 29  0  0  0  0  0  0  0  0999 V2000
   -2.2097   -0.5955   -0.1675 S   0  0  0  0  0  0  0  0  0  0  0  0
   -1.0788   -1.4081    0.3002 O   0  0  0  0  0  0  0  0  0  0  0  0
   -3.3314   -1.3088   -0.7509 O   0  0  0  0  0  0  0  0  0  0  0  0
   -2.7934    0.1611    1.1829 O   0  0  0  0  0  0  0  0  0  0  0  0
   -3.3700   -0.4663    1.6379 H   0  0  0  0  0  0  0  0  0  0  0  0
   -1.7387    0.5904   -0.9458 O   0  0  0  0  0  0  0  0  0  0  0  0
   -0.4339    1.1339   -0.3789 H   0  0  0  0  0  0  0  0  0  0  0  0
    1.6023    1.2158   -0.8314 C   0  0  0  0  0  0  0  0  0  0  0  0
    1.7934   -0.2957   -0.9333 C   0  0  0  0  0  0  0  0  0  0  0  0
    2.4921    1.7178   -0.4371 H   0  0  0  0  0  0  0  0  0  0  0  0
    0.4434    1.6165    0.0217 N   0  0  0  0  0  0  0  0  0  0  0  0
    1.3935    1.6204   -1.8250 H   0  0  0  0  0  0  0  0  0  0  0  0
    2.3111   -0.5015   -1.8889 H   0  0  0  0  0  0  0  0  0  0  0  0
    0.8080   -0.7676   -0.9966 H   0  0  0  0  0  0  0  0  0  0  0  0
    2.5111   -0.8684    0.1965 N   0  0  0  0  0  0  0  0  0  0  0  0
    0.1735    3.0678   -0.0907 C   0  0  0  0  0  0  0  0  0  0  0  0
    3.9448   -0.6584    0.0999 C   0  0  0  0  0  0  0  0  0  0  0  0
    2.1968   -2.2830    0.3606 C   0  0  0  0  0  0  0  0  0  0  0  0
    0.0008    3.3166   -1.1382 H   0  0  0  0  0  0  0  0  0  0  0  0
    1.0254    3.6319    0.2969 H   0  0  0  0  0  0  0  0  0  0  0  0
   -0.7242    3.3001    0.4828 H   0  0  0  0  0  0  0  0  0  0  0  0
    1.1185   -2.4079    0.4822 H   0  0  0  0  0  0  0  0  0  0  0  0
    2.6975   -2.6631    1.2558 H   0  0  0  0  0  0  0  0  0  0  0  0
    2.5294   -2.8895   -0.5020 H   0  0  0  0  0  0  0  0  0  0  0  0
    0.5590    1.2008    1.4441 C   0  0  0  0  0  0  0  0  0  0  0  0
    4.1795    0.4078    0.0229 H   0  0  0  0  0  0  0  0  0  0  0  0
    4.3869   -1.1683   -0.7774 H   0  0  0  0  0  0  0  0  0  0  0  0
    4.4336   -1.0396    1.0005 H   0  0  0  0  0  0  0  0  0  0  0  0
    0.6987    0.1240    1.4878 H   0  0  0  0  0  0  0  0  0  0  0  0
   -0.3688    1.4741    1.9481 H   0  0  0  0  0  0  0  0  0  0  0  0
    1.4155    1.7075    1.8955 H   0  0  0  0  0  0  0  0  0  0  0  0
  1  2  1  0  0  0  0
  1  4  1  0  0  0  0
  3  1  2  0  0  0  0
  4  5  1  0  0  0  0
  6  1  2  0  0  0  0
  7 11  1  0  0  0  0
  8 10  1  0  0  0  0
  8 11  1  0  0  0  0
  9  8  1  0  0  0  0
  9 15  1  0  0  0  0
 11 25  1  0  0  0  0
 12  8  1  0  0  0  0
 13  9  1  0  0  0  0
 14  9  1  0  0  0  0
 15 18  1  0  0  0  0
 16 11  1  0  0  0  0
 16 20  1  0  0  0  0
 16 21  1  0  0  0  0
 17 15  1  0  0  0  0
 17 28  1  0  0  0  0
 18 22  1  0  0  0  0
 18 23  1  0  0  0  0
 19 16  1  0  0  0  0
 24 18  1  0  0  0  0
 25 29  1  0  0  0  0
 25 31  1  0  0  0  0
 25 30  1  0  0  0  0
 26 17  1  0  0  0  0
 27 17  1  0  0  0  0
M  RAD  1   2   2
M  END
$$$$
