1tri-me-da.log
 OpenBabel02271919093D
Gaussian kemi/andersx/programs/g09/g09 # opt freq wb97xd 6-31++g(d,p)
 21 20  0  0  0  0  0  0  0  0999 V2000
   -0.9928   -0.3115    0.8208 C   0  0  0  0  0  0  0  0  0  0  0  0
    0.4545   -0.7643    0.6710 C   0  0  0  0  0  0  0  0  0  0  0  0
   -1.0377    0.6786    1.3147 H   0  0  0  0  0  0  0  0  0  0  0  0
   -1.5055   -1.0100    1.4944 H   0  0  0  0  0  0  0  0  0  0  0  0
   -1.6579   -0.3183   -0.4671 N   0  0  0  0  0  0  0  0  0  0  0  0
    1.2104    0.0665   -0.2613 N   0  0  0  0  0  0  0  0  0  0  0  0
    0.9374   -0.7935    1.6676 H   0  0  0  0  0  0  0  0  0  0  0  0
    0.4487   -1.7848    0.2746 H   0  0  0  0  0  0  0  0  0  0  0  0
   -1.0515    0.1368   -1.1428 H   0  0  0  0  0  0  0  0  0  0  0  0
   -2.9732    0.2916   -0.4406 C   0  0  0  0  0  0  0  0  0  0  0  0
   -3.3943    0.3091   -1.4493 H   0  0  0  0  0  0  0  0  0  0  0  0
   -3.6423   -0.3072    0.1877 H   0  0  0  0  0  0  0  0  0  0  0  0
   -2.9771    1.3230   -0.0425 H   0  0  0  0  0  0  0  0  0  0  0  0
    2.4481   -0.5811   -0.6576 C   0  0  0  0  0  0  0  0  0  0  0  0
    2.9666    0.0332   -1.3997 H   0  0  0  0  0  0  0  0  0  0  0  0
    3.1366   -0.7433    0.1942 H   0  0  0  0  0  0  0  0  0  0  0  0
    2.2311   -1.5514   -1.1129 H   0  0  0  0  0  0  0  0  0  0  0  0
    1.4663    1.3976    0.2617 C   0  0  0  0  0  0  0  0  0  0  0  0
    2.0530    1.3777    1.2007 H   0  0  0  0  0  0  0  0  0  0  0  0
    2.0232    1.9803   -0.4774 H   0  0  0  0  0  0  0  0  0  0  0  0
    0.5272    1.9212    0.4580 H   0  0  0  0  0  0  0  0  0  0  0  0
  1  3  1  0  0  0  0
  1  4  1  0  0  0  0
  2  1  1  0  0  0  0
  2  7  1  0  0  0  0
  5 10  1  0  0  0  0
  5  1  1  0  0  0  0
  6 18  1  0  0  0  0
  6  2  1  0  0  0  0
  8  2  1  0  0  0  0
  9  5  1  0  0  0  0
 10 13  1  0  0  0  0
 10 12  1  0  0  0  0
 11 10  1  0  0  0  0
 14  6  1  0  0  0  0
 14 16  1  0  0  0  0
 15 14  1  0  0  0  0
 17 14  1  0  0  0  0
 18 21  1  0  0  0  0
 18 19  1  0  0  0  0
 20 18  1  0  0  0  0
M  END
$$$$
