74
4sa1dma3eda-35
S       -2.62408800      -2.17646300      -0.60821500
O       -1.85620800      -0.90425700      -0.54883300
O       -2.45181400      -2.97706400       0.62773000
O       -4.02664600      -1.93667800      -0.97604800
O       -2.01070100      -3.03043300      -1.80300800
H       -1.09371200      -3.31029700      -1.53484300
S        0.98927900      -3.16083400       0.37398600
O        0.96083700      -1.68522100       0.57485800
O        0.47605700      -3.53909700      -0.96368700
O        2.30635600      -3.71778100       0.69726000
O       -0.01632600      -3.78894500       1.44302700
H       -0.94370500      -3.58065300       1.15392500
S        2.25883500       2.41124800       1.06275600
O        2.27986200       1.04545500       0.45163600
O        0.94523400       2.61304800       1.74943400
O        3.43736900       2.70977100       1.84924500
O        2.27966400       3.43628500      -0.16448800
H        1.41188700       3.39637300      -0.64608400
S       -1.37888600       3.25552300      -0.55642300
O       -1.79336300       1.93196400      -0.00980900
O       -0.11007100       3.06481900      -1.33639000
O       -2.43353200       3.96071500      -1.26093500
O       -0.99654600       4.16620400       0.69410900
H       -0.26429600       3.72201200       1.19184100
C       -4.75840100       1.62750600      -1.87246600
N       -4.19557600       0.86304100      -0.73809500
C       -4.83025400       1.14695200       0.56815900
H       -4.23416300      -0.15899800      -0.92134300
H       -4.54872600       2.68709900      -1.71880900
H       -4.27443200       1.29327500      -2.79022600
H       -5.83202000       1.44366700      -1.93413500
H       -4.74397500       2.21496600       0.77244500
H       -5.87906800       0.84809800       0.53275100
H       -4.29535600       0.57971300       1.33372800
H       -3.18892700       1.10734500      -0.62955100
C        0.92480300       0.07124400      -2.91108500
N        0.43045200       0.30425900      -1.53568300
C        1.49667400      -1.32277400      -3.10437100
N        2.74996900      -1.51132800      -2.36725700
H        0.11704100       1.28943700      -1.44104300
H        1.16712400       0.18033000      -0.82806400
H        0.08317400       0.22466800      -3.58975700
H        1.67241900       0.84122700      -3.12345100
H        1.62024900      -1.47897900      -4.18455100
H        0.78544800      -2.06736100      -2.73862500
H        3.50599600      -0.94967300      -2.75811100
H        3.02157700      -2.48884900      -2.43301000
H       -0.36299400      -0.31099500      -1.27235000
C        5.45716700       0.42493900      -0.14387000
N        4.78278100       0.77361600      -1.39900300
C        5.17013600      -1.02005500       0.24994900
N        3.71137100      -1.26839400       0.33216500
H        5.29103400       1.51536500      -1.86733000
H        3.86659800       1.15695600      -1.17399900
H        6.53919200       0.51226000      -0.27760200
H        5.17257200       1.09255400       0.68055200
H        5.61280000      -1.24583400       1.22299500
H        5.57548600      -1.71306600      -0.49167300
H        3.21340100      -0.52796300       0.84705000
H        3.45765000      -2.18978900       0.72242300
H        3.26935100      -1.25638700      -0.62131300
C       -1.71969300      -1.26884700       3.47629400
N       -3.00604600      -1.00388600       2.82912700
C       -0.78584200      -0.07452100       3.32253800
N       -0.56579600       0.20321700       1.88609100
H       -3.74488400      -0.87646100       3.50950000
H       -3.25495000      -1.77849500       2.22015700
H       -1.82296300      -1.48893200       4.54487300
H       -1.24877500      -2.14332500       3.01674300
H        0.18693100      -0.26397800       3.78196400
H       -1.21780800       0.82377500       3.76984200
H       -0.03538700      -0.56414900       1.42726000
H       -0.04682700       1.08940800       1.75222300
H       -1.45819400       0.28345200       1.38682000
74
4sa1dma3eda-39
S       -2.17642300       2.72645700      -0.15959200
O       -2.05906700       1.33497000       0.38193700
O       -1.10070500       2.94220800      -1.17301700
O       -3.52274500       3.05988600      -0.58873600
O       -1.84805600       3.70678900       1.05689400
H       -0.90469800       3.57699600       1.32825400
S       -1.70205900      -2.81332900      -0.38766100
O       -0.81723300      -2.97702500      -1.56859900
O       -1.45133200      -1.50753500       0.28196300
O       -3.12517300      -3.03250400      -0.66089400
O       -1.28997600      -3.93452300       0.66794500
H       -0.33540000      -3.78912300       0.89192700
S        2.17359700      -2.39217900       0.27762500
O        1.25974700      -3.15709800       1.14559400
O        1.89497600      -0.91220800       0.37447000
O        3.59335000      -2.67666200       0.42742300
O        1.82532100      -2.77353000      -1.23844700
H        0.84453500      -2.90784300      -1.34920900
S        1.72325200       3.09633500       0.45694800
O        1.67471900       1.83028000      -0.30165800
O        0.74148500       3.06324800       1.58803100
O        3.08339600       3.45646200       0.86424200
O        1.22797300       4.25251400      -0.52235200
H        0.34789500       3.97038000      -0.87532600
C       -4.52147000      -0.47134800       1.41399600
N       -4.13455600      -0.39254500      -0.01322000
C       -5.16658700       0.21600600      -0.87942300
H       -3.26862800       0.18612600      -0.05603500
H       -5.37644600      -1.14079400       1.51933400
H       -3.67347900      -0.84311300       1.99055400
H       -4.77954900       0.53124000       1.75723000
H       -6.09154600      -0.35692800      -0.79740200
H       -5.31496500       1.25111600      -0.57028500
H       -4.80144400       0.20328800      -1.90443700
H       -3.87429300      -1.33484300      -0.35190500
C       -0.00723400      -0.12030100      -2.94668600
N       -0.10887300       0.21783800      -1.51173300
C       -1.33074100       0.13445800      -3.65125500
N       -2.40029800      -0.63115700      -3.01126500
H        0.74715800      -0.01558400      -0.99121600
H       -0.87345400      -0.29735000      -1.04826500
H        0.78465600       0.49283300      -3.38164900
H        0.27698500      -1.17185200      -3.01720100
H       -1.18607100      -0.10662900      -4.71447100
H       -1.58048200       1.19879700      -3.58235300
H       -2.19204700      -1.62766700      -3.03307800
H       -3.26739100      -0.49745400      -3.51977100
H       -0.28522600       1.22650000      -1.37209700
C        0.09441500       0.03263800       3.49160200
N        0.02706200       0.38150200       2.05020400
C       -0.26471700      -1.42533100       3.73231900
N       -1.63607600      -1.69405800       3.30288800
H        0.31225200       1.36848900       1.89516100
H       -0.92200000       0.30901300       1.66405100
H        1.11262200       0.24376200       3.82737600
H       -0.59925400       0.69233400       4.01687400
H       -0.18405900      -1.60012300       4.80931000
H        0.47447400      -2.06946600       3.23481500
H       -1.99716100      -2.51447400       3.77612700
H       -1.64223500      -1.90865600       2.30845300
H        0.64941100      -0.21666900       1.47412200
C        4.58317600       0.88144200      -1.15503900
N        4.17724300       0.80133900       0.27120500
C        5.01119300      -0.51889200      -1.60032900
N        5.91210600      -1.09018800      -0.60061500
H        3.99822200       1.74161600       0.65928700
H        4.93187400       0.30141100       0.75875900
H        3.73524700       1.27218000      -1.71846400
H        5.41445000       1.58778900      -1.21529100
H        5.47494400      -0.44260100      -2.58898800
H        4.12499400      -1.15200800      -1.70608900
H        6.84746400      -1.24211600      -0.95248400
H        5.53867600      -1.96273000      -0.24023900
H        3.30219200       0.24427800       0.35575700
74
4sa1dma3eda-36
S       -3.04457800      -1.83589200      -0.57938800
O       -2.37714900      -0.77971900      -1.40701100
O       -2.49827400      -1.83373800       0.80688000
O       -4.49548900      -1.75265100      -0.65511000
O       -2.63110900      -3.23403000      -1.21755400
H       -1.66482100      -3.38176900      -1.04801200
S        0.55989700      -3.02618600       0.68668500
O        0.80994500      -1.55474200       0.80997000
O        0.00073900      -3.35365400      -0.64465900
O        1.74442500      -3.79463700       1.06852600
O       -0.56369700      -3.37597100       1.76091100
H       -1.39337200      -2.91120700       1.46602900
S        2.70729300       2.27529600       0.67704100
O        2.43445600       0.90147000       0.16253700
O        1.57450500       2.70689600       1.55881500
O        4.03019200       2.44063900       1.24744000
O        2.65999600       3.23628300      -0.60088500
H        1.75365700       3.18775600      -0.99809800
S       -1.03540900       3.05823300      -0.53958000
O       -1.42060700       1.79275000       0.12885700
O        0.13183500       2.81679500      -1.43914400
O       -2.17629800       3.71077100      -1.18868300
O       -0.54230600       4.07639200       0.57941900
H        0.27676500       3.70521800       1.00051000
C       -4.96959600       1.27875900      -2.13827400
N       -3.98258600       1.49225400      -1.05756000
C       -4.56295700       1.44897200       0.30670000
H       -3.25901700       0.74665500      -1.12850800
H       -5.75282900       2.03484200      -2.06723000
H       -4.46028200       1.36091100      -3.09836500
H       -5.38628400       0.27699900      -2.02488600
H       -5.27128500       2.27168200       0.41585100
H       -5.06478500       0.48851300       0.43310600
H       -3.74789400       1.54853100       1.02458200
H       -3.47407700       2.38685200      -1.18145300
C        0.95349600      -0.25721300      -2.82361900
N        0.30739000      -0.06131500      -1.50777600
C        1.31587700      -1.71248800      -3.07387000
N        2.48250600      -2.11620100      -2.28020700
H        0.27857800       0.94444600      -1.28620100
H        0.80205200      -0.53863000      -0.73920000
H        0.25809000       0.10239100      -3.58467200
H        1.84334400       0.37727600      -2.85161400
H        1.48450100      -1.84000500      -4.15101600
H        0.47697200      -2.35161700      -2.78759000
H        3.34106400      -1.73114300      -2.67532600
H        2.55439500      -3.12960600      -2.27970300
H       -0.67127200      -0.41233500      -1.48431400
C        5.48048200      -0.28057300      -0.43256600
N        4.77760200      -0.00795800      -1.69147500
C        5.01120800      -1.59550200       0.18079500
N        3.53572800      -1.61303900       0.33346200
H        5.34662900       0.59239100      -2.27789000
H        3.93578600       0.52392500      -1.47357300
H        6.55153600      -0.38196000      -0.62959200
H        5.35302800       0.53050000       0.29656800
H        5.46139400      -1.73800500       1.16596200
H        5.27970200      -2.44268000      -0.45559400
H        3.16329200      -0.72594500       0.70808800
H        3.18253400      -2.40076900       0.89337900
H        3.06002500      -1.71425700      -0.60102000
C       -1.66596600      -0.54272900       3.83175600
N       -2.79796400       0.01401200       3.09417500
C       -0.44955500       0.37085600       3.69896200
N       -0.16608200       0.59946900       2.26592900
H       -3.60147100       0.16741400       3.68837900
H       -3.06305300      -0.60062100       2.32860300
H       -1.89011400      -0.65634800       4.89725000
H       -1.40239000      -1.53789200       3.45555000
H        0.43753000      -0.06805600       4.16182800
H       -0.64553200       1.34485500       4.15297500
H        0.13287800      -0.26867200       1.78258800
H        0.56230500       1.31963700       2.10213500
H       -1.00624000       0.94364300       1.77673000
