1sa_3a_H.log
 OpenBabel02281910143D
Gaussian users/kemi/kmacke/programs/G09D/g09/g09 # opt freq 6-31++g(d,p) wb97xd
 20 16  0  0  0  0  0  0  0  0999 V2000
   -0.0065   -0.0027    0.1035 S   0  0  0  0  0  0  0  0  0  0  0  0
    0.2501    1.2215    0.9038 O   0  0  0  0  0  0  0  0  0  0  0  0
    1.0301   -0.0419   -1.0621 O   0  0  0  0  0  0  0  0  0  0  0  0
    0.1486   -1.2480    0.8978 O   0  0  0  0  0  0  0  0  0  0  0  0
   -1.3441    0.0528   -0.5622 O   0  0  0  0  0  0  0  0  0  0  0  0
   -1.6173    2.7849   -0.0879 N   0  0  0  0  0  0  0  0  0  0  0  0
   -0.7798    2.3880    0.4404 H   0  0  0  0  0  0  0  0  0  0  0  0
   -2.3196    3.1552    0.5494 H   0  0  0  0  0  0  0  0  0  0  0  0
   -1.9682    1.9457   -0.5781 H   0  0  0  0  0  0  0  0  0  0  0  0
   -1.3334    3.5005   -0.7544 H   0  0  0  0  0  0  0  0  0  0  0  0
    3.4197   -0.1099   -0.0936 N   0  0  0  0  0  0  0  0  0  0  0  0
    2.0225   -0.0717   -0.6824 H   0  0  0  0  0  0  0  0  0  0  0  0
    3.5145    0.6101    0.6182 H   0  0  0  0  0  0  0  0  0  0  0  0
    4.1495    0.0396   -0.7848 H   0  0  0  0  0  0  0  0  0  0  0  0
    3.5971   -1.0045    0.3553 H   0  0  0  0  0  0  0  0  0  0  0  0
   -1.8319   -2.6603   -0.0887 N   0  0  0  0  0  0  0  0  0  0  0  0
   -1.6008   -3.3973   -0.7524 H   0  0  0  0  0  0  0  0  0  0  0  0
   -2.5544   -2.9788    0.5540 H   0  0  0  0  0  0  0  0  0  0  0  0
   -0.9650   -2.3179    0.4342 H   0  0  0  0  0  0  0  0  0  0  0  0
   -2.1292   -1.8041   -0.5828 H   0  0  0  0  0  0  0  0  0  0  0  0
  1  4  2  0  0  0  0
  1  2  1  0  0  0  0
  3 12  1  0  0  0  0
  3  1  1  0  0  0  0
  5  1  2  0  0  0  0
  6  7  1  0  0  0  0
  6  8  1  0  0  0  0
  9  6  1  0  0  0  0
 10  6  1  0  0  0  0
 11 15  1  0  0  0  0
 11 13  1  0  0  0  0
 14 11  1  0  0  0  0
 16 19  1  0  0  0  0
 16 18  1  0  0  0  0
 17 16  1  0  0  0  0
 20 16  1  0  0  0  0
M  RAD  1   2   2
M  END
$$$$
