1sa_1a_H.log
 OpenBabel02281910143D
Gaussian users/kemi/kmacke/programs/G09D/g09/g09 # opt=(maxcycle=1000) freq wb97
 12 10  0  0  0  0  0  0  0  0999 V2000
    3.7081   -0.5259    0.8352 H   0  0  0  0  0  0  0  0  0  0  0  0
   -0.6548   -0.0335    0.0966 S   0  0  0  0  0  0  0  0  0  0  0  0
   -1.5731   -0.8750   -0.8852 O   0  0  0  0  0  0  0  0  0  0  0  0
   -1.1156   -0.1837    1.4487 O   0  0  0  0  0  0  0  0  0  0  0  0
   -0.8607    1.4446   -0.4330 O   0  0  0  0  0  0  0  0  0  0  0  0
    0.7179   -0.3331   -0.2685 O   0  0  0  0  0  0  0  0  0  0  0  0
   -2.2389   -1.3724   -0.3824 H   0  0  0  0  0  0  0  0  0  0  0  0
   -1.7071    1.8185   -0.1368 H   0  0  0  0  0  0  0  0  0  0  0  0
    3.3722   -0.0294    0.0080 N   0  0  0  0  0  0  0  0  0  0  0  0
    2.3234   -0.0822   -0.0367 H   0  0  0  0  0  0  0  0  0  0  0  0
    3.7649   -0.4649   -0.8289 H   0  0  0  0  0  0  0  0  0  0  0  0
    3.6725    0.9459    0.0525 H   0  0  0  0  0  0  0  0  0  0  0  0
  2  4  2  0  0  0  0
  3  7  1  0  0  0  0
  3  2  1  0  0  0  0
  5  8  1  0  0  0  0
  5  2  1  0  0  0  0
  6  2  2  0  0  0  0
  9 12  1  0  0  0  0
  9  1  1  0  0  0  0
 10  9  1  0  0  0  0
 11  9  1  0  0  0  0
M  END
$$$$
