2sa_3a_H.log
 OpenBabel02281910143D
Gaussian users/kemi/kmacke/programs/G09D/g09/g09 # opt freq 6-31++g(d,p) wb97xd
 27 22  0  0  0  0  0  0  0  0999 V2000
    2.1441   -0.0096    0.0119 S   0  0  0  0  0  0  0  0  0  0  0  0
    1.4842    0.4138   -1.2415 O   0  0  0  0  0  0  0  0  0  0  0  0
    0.0975   -2.2045   -1.5654 N   0  0  0  0  0  0  0  0  0  0  0  0
    0.9801   -2.1994   -1.0165 H   0  0  0  0  0  0  0  0  0  0  0  0
   -0.6744   -2.1430   -0.8744 H   0  0  0  0  0  0  0  0  0  0  0  0
    2.0216   -1.4567    0.2644 O   0  0  0  0  0  0  0  0  0  0  0  0
    1.7394    0.8098    1.1764 O   0  0  0  0  0  0  0  0  0  0  0  0
   -0.0891    2.6064   -0.9123 N   0  0  0  0  0  0  0  0  0  0  0  0
    0.4106    3.4338   -0.5934 H   0  0  0  0  0  0  0  0  0  0  0  0
    0.5852    1.8285   -1.1231 H   0  0  0  0  0  0  0  0  0  0  0  0
   -0.1813   -0.3681    2.7230 N   0  0  0  0  0  0  0  0  0  0  0  0
    0.1503   -0.9554    3.4850 H   0  0  0  0  0  0  0  0  0  0  0  0
    0.6193    0.0993    2.2295 H   0  0  0  0  0  0  0  0  0  0  0  0
   -2.1046   -0.0063   -0.0725 S   0  0  0  0  0  0  0  0  0  0  0  0
   -3.6777   -0.2681    0.0850 O   0  0  0  0  0  0  0  0  0  0  0  0
   -1.8044    0.2135   -1.4891 O   0  0  0  0  0  0  0  0  0  0  0  0
   -1.5317   -1.2680    0.4694 O   0  0  0  0  0  0  0  0  0  0  0  0
   -1.7604    1.1569    0.7803 O   0  0  0  0  0  0  0  0  0  0  0  0
   -4.1838    0.4423   -0.3359 H   0  0  0  0  0  0  0  0  0  0  0  0
    3.6848    0.3163   -0.2777 O   0  0  0  0  0  0  0  0  0  0  0  0
    4.2366    0.0370    0.4679 H   0  0  0  0  0  0  0  0  0  0  0  0
   -0.7312    2.2458   -0.1742 H   0  0  0  0  0  0  0  0  0  0  0  0
   -0.6331    2.8168   -1.7474 H   0  0  0  0  0  0  0  0  0  0  0  0
    0.0719   -1.3345   -2.1063 H   0  0  0  0  0  0  0  0  0  0  0  0
    0.0139   -3.0186   -2.1693 H   0  0  0  0  0  0  0  0  0  0  0  0
   -0.6912   -0.9235    2.0048 H   0  0  0  0  0  0  0  0  0  0  0  0
   -0.8210    0.3474    3.0678 H   0  0  0  0  0  0  0  0  0  0  0  0
  1  6  2  0  0  0  0
  1  7  1  0  0  0  0
  2  1  2  0  0  0  0
  3  4  1  0  0  0  0
  3  5  1  0  0  0  0
  8  9  1  0  0  0  0
  8 22  1  0  0  0  0
 10  8  1  0  0  0  0
 11 27  1  0  0  0  0
 11 12  1  0  0  0  0
 13 11  1  0  0  0  0
 14 15  1  0  0  0  0
 14 17  2  0  0  0  0
 14 18  1  0  0  0  0
 16 14  2  0  0  0  0
 19 15  1  0  0  0  0
 20  1  1  0  0  0  0
 20 21  1  0  0  0  0
 23  8  1  0  0  0  0
 24  3  1  0  0  0  0
 25  3  1  0  0  0  0
 26 11  1  0  0  0  0
M  RAD  2   7   2  18   2
M  END
$$$$
