3sa_5a_H.sdf 
 OpenBabel09072015113D
Besel et al., Gaussian 16, # opt freq 6-31++g(d,p) wb97xd
 42 34  0  0  0  0  0  0  0  0999 V2000
    2.3999    0.9544    2.4690 N   0  0  0  0  0  0  0  0  0  0  0  0
    2.5400    1.9088    2.7925 H   0  0  0  0  0  0  0  0  0  0  0  0
    2.5100    0.2948    3.2362 H   0  0  0  0  0  0  0  0  0  0  0  0
    1.4353    0.8662    2.0374 H   0  0  0  0  0  0  0  0  0  0  0  0
    3.0938    0.7220    1.7222 H   0  0  0  0  0  0  0  0  0  0  0  0
   -2.3096    1.2477   -2.4003 N   0  0  0  0  0  0  0  0  0  0  0  0
   -1.2894    1.1128   -2.1896 H   0  0  0  0  0  0  0  0  0  0  0  0
   -2.6134    1.9886   -1.7647 H   0  0  0  0  0  0  0  0  0  0  0  0
   -2.4926    1.4966   -3.3685 H   0  0  0  0  0  0  0  0  0  0  0  0
   -2.7673    0.3481   -2.1334 H   0  0  0  0  0  0  0  0  0  0  0  0
   -0.0867   -1.8014   -0.1923 N   0  0  0  0  0  0  0  0  0  0  0  0
   -0.2002   -2.5682   -0.8503 H   0  0  0  0  0  0  0  0  0  0  0  0
   -0.9213   -1.7392    0.4176 H   0  0  0  0  0  0  0  0  0  0  0  0
    0.7831   -1.9174    0.3558 H   0  0  0  0  0  0  0  0  0  0  0  0
   -0.0078   -0.9031   -0.7094 H   0  0  0  0  0  0  0  0  0  0  0  0
   -2.6854    1.5433    1.9942 N   0  0  0  0  0  0  0  0  0  0  0  0
   -2.9932    2.0350    2.8282 H   0  0  0  0  0  0  0  0  0  0  0  0
   -2.0098    0.8050    2.2178 H   0  0  0  0  0  0  0  0  0  0  0  0
   -3.4753    1.0932    1.4829 H   0  0  0  0  0  0  0  0  0  0  0  0
   -2.1838    2.1660    1.3165 H   0  0  0  0  0  0  0  0  0  0  0  0
    3.0098    1.5872   -1.8308 N   0  0  0  0  0  0  0  0  0  0  0  0
    3.9302    1.5612   -1.3886 H   0  0  0  0  0  0  0  0  0  0  0  0
    3.0378    2.0801   -2.7191 H   0  0  0  0  0  0  0  0  0  0  0  0
    2.7227    0.5989   -1.9507 H   0  0  0  0  0  0  0  0  0  0  0  0
    2.3304    2.0387   -1.1550 H   0  0  0  0  0  0  0  0  0  0  0  0
   -3.5223   -1.1023    0.0051 S   0  0  0  0  0  0  0  0  0  0  0  0
   -2.5798   -1.3988    1.1060 O   0  0  0  0  0  0  0  0  0  0  0  0
   -4.2639    0.1568    0.2424 O   0  0  0  0  0  0  0  0  0  0  0  0
   -2.8977   -1.1785   -1.3274 O   0  0  0  0  0  0  0  0  0  0  0  0
   -4.6011   -2.2885   -0.0451 O   0  0  0  0  0  0  0  0  0  0  0  0
   -5.1113   -2.3094    0.7772 H   0  0  0  0  0  0  0  0  0  0  0  0
    3.3878   -1.1938   -0.0189 S   0  0  0  0  0  0  0  0  0  0  0  0
    2.4821   -1.7490    1.0069 O   0  0  0  0  0  0  0  0  0  0  0  0
    2.7903   -1.1923   -1.3676 O   0  0  0  0  0  0  0  0  0  0  0  0
    3.9520    0.1215    0.3650 O   0  0  0  0  0  0  0  0  0  0  0  0
    4.6968   -2.1222   -0.0655 O   0  0  0  0  0  0  0  0  0  0  0  0
    4.4588   -3.0193   -0.3407 H   0  0  0  0  0  0  0  0  0  0  0  0
    0.0516    1.6977    0.0039 S   0  0  0  0  0  0  0  0  0  0  0  0
    0.0120    0.8168    1.2325 O   0  0  0  0  0  0  0  0  0  0  0  0
   -1.1909    2.5296   -0.0385 O   0  0  0  0  0  0  0  0  0  0  0  0
    1.2980    2.5174    0.0306 O   0  0  0  0  0  0  0  0  0  0  0  0
    0.0839    0.8118   -1.2311 O   0  0  0  0  0  0  0  0  0  0  0  0
  1  2  1  0  0  0  0
  1  3  1  0  0  0  0
  4  1  1  0  0  0  0
  5  1  1  0  0  0  0
  6  7  1  0  0  0  0
  6 10  1  0  0  0  0
  6  8  1  0  0  0  0
  9  6  1  0  0  0  0
 11 14  1  0  0  0  0
 11 13  1  0  0  0  0
 12 11  1  0  0  0  0
 15 11  1  0  0  0  0
 16 18  1  0  0  0  0
 16 17  1  0  0  0  0
 19 16  1  0  0  0  0
 20 16  1  0  0  0  0
 21 22  1  0  0  0  0
 21 25  1  0  0  0  0
 23 21  1  0  0  0  0
 24 21  1  0  0  0  0
 26 28  2  0  0  0  0
 26 27  1  0  0  0  0
 29 26  2  0  0  0  0
 30 26  1  0  0  0  0
 30 31  1  0  0  0  0
 32 35  2  0  0  0  0
 32 33  1  0  0  0  0
 34 32  2  0  0  0  0
 36 32  1  0  0  0  0
 37 36  1  0  0  0  0
 38 41  1  0  0  0  0
 38 39  1  0  0  0  0
 40 38  2  0  0  0  0
 42 38  2  0  0  0  0
M  RAD  4  27   2  33   2  39   2  41   2
M  END
$$$$
