3sa_3a_H.log
 OpenBabel02281910143D
Gaussian users/kemi/kmacke/programs/G09D/g09/g09 # opt freq 6-31++g(d,p) wb97xd
 34 28  0  0  0  0  0  0  0  0999 V2000
   -2.6903   -1.2342   -0.0073 S   0  0  0  0  0  0  0  0  0  0  0  0
   -2.9050   -0.5041    1.2652 O   0  0  0  0  0  0  0  0  0  0  0  0
   -3.9329   -2.2268   -0.2046 O   0  0  0  0  0  0  0  0  0  0  0  0
   -2.7791   -0.3610   -1.1931 O   0  0  0  0  0  0  0  0  0  0  0  0
   -3.9347   -2.9070    0.4850 H   0  0  0  0  0  0  0  0  0  0  0  0
    2.8278   -1.1726    0.0132 S   0  0  0  0  0  0  0  0  0  0  0  0
    3.5523    0.1951    0.1412 O   0  0  0  0  0  0  0  0  0  0  0  0
    3.7573   -2.1166    0.8821 O   0  0  0  0  0  0  0  0  0  0  0  0
    1.5426   -1.1325    0.6875 O   0  0  0  0  0  0  0  0  0  0  0  0
    4.5260   -2.4140    0.3697 H   0  0  0  0  0  0  0  0  0  0  0  0
    0.5808    2.2160   -0.0972 S   0  0  0  0  0  0  0  0  0  0  0  0
   -0.5716    1.9892    0.8105 O   0  0  0  0  0  0  0  0  0  0  0  0
    0.4946    1.4760   -1.3612 O   0  0  0  0  0  0  0  0  0  0  0  0
    1.8752    2.0698    0.5941 O   0  0  0  0  0  0  0  0  0  0  0  0
   -2.1999    2.2202    0.2483 H   0  0  0  0  0  0  0  0  0  0  0  0
   -1.4631   -2.0517    0.0284 O   0  0  0  0  0  0  0  0  0  0  0  0
    0.0847   -1.1995   -2.1165 N   0  0  0  0  0  0  0  0  0  0  0  0
   -3.1606    2.1142   -0.1457 N   0  0  0  0  0  0  0  0  0  0  0  0
   -0.4401   -0.2323    2.5005 N   0  0  0  0  0  0  0  0  0  0  0  0
   -3.8233    1.9766    0.6167 H   0  0  0  0  0  0  0  0  0  0  0  0
   -3.4197    2.9262   -0.7018 H   0  0  0  0  0  0  0  0  0  0  0  0
   -3.1395    1.2353   -0.7186 H   0  0  0  0  0  0  0  0  0  0  0  0
    2.8977    0.9587    0.2997 H   0  0  0  0  0  0  0  0  0  0  0  0
   -1.4043   -0.5122    2.2228 H   0  0  0  0  0  0  0  0  0  0  0  0
   -0.3029   -0.2877    3.5068 H   0  0  0  0  0  0  0  0  0  0  0  0
    0.2446   -0.8191    2.0042 H   0  0  0  0  0  0  0  0  0  0  0  0
   -0.3204    0.7333    2.1502 H   0  0  0  0  0  0  0  0  0  0  0  0
   -0.4239   -1.6610   -1.3322 H   0  0  0  0  0  0  0  0  0  0  0  0
    1.0432   -1.5640   -2.1774 H   0  0  0  0  0  0  0  0  0  0  0  0
    0.1408   -0.1880   -1.8980 H   0  0  0  0  0  0  0  0  0  0  0  0
   -0.4255   -1.3416   -2.9855 H   0  0  0  0  0  0  0  0  0  0  0  0
    2.8455   -1.6299   -1.3642 O   0  0  0  0  0  0  0  0  0  0  0  0
    0.4014    3.7733   -0.4461 O   0  0  0  0  0  0  0  0  0  0  0  0
    1.1251    4.0740   -1.0165 H   0  0  0  0  0  0  0  0  0  0  0  0
  1 16  2  0  0  0  0
  1  2  1  0  0  0  0
  3  1  1  0  0  0  0
  3  5  1  0  0  0  0
  4  1  2  0  0  0  0
  6  7  1  0  0  0  0
  6  9  2  0  0  0  0
  6  8  1  0  0  0  0
  7 23  1  0  0  0  0
 10  8  1  0  0  0  0
 11 14  2  0  0  0  0
 11 12  1  0  0  0  0
 13 11  2  0  0  0  0
 17 30  1  0  0  0  0
 17 28  1  0  0  0  0
 18 15  1  0  0  0  0
 18 20  1  0  0  0  0
 19 25  1  0  0  0  0
 21 18  1  0  0  0  0
 22 18  1  0  0  0  0
 24 19  1  0  0  0  0
 26 19  1  0  0  0  0
 27 19  1  0  0  0  0
 29 17  1  0  0  0  0
 31 17  1  0  0  0  0
 32  6  2  0  0  0  0
 33 11  1  0  0  0  0
 34 33  1  0  0  0  0
M  RAD  2   2   2  12   2
M  END
$$$$
