3sa_4a_H.sdf 
 OpenBabel09072015113D
Besel et al., Gaussian 16, # opt freq 6-31++g(d,p) wb97xd
 38 31  0  0  0  0  0  0  0  0999 V2000
    3.0318    2.4306   -0.1885 N   0  0  0  0  0  0  0  0  0  0  0  0
    3.7596    3.1415   -0.1815 H   0  0  0  0  0  0  0  0  0  0  0  0
    2.9940    1.9290    0.7101 H   0  0  0  0  0  0  0  0  0  0  0  0
    2.0971    2.8455   -0.3836 H   0  0  0  0  0  0  0  0  0  0  0  0
    3.2494    1.6788   -0.8680 H   0  0  0  0  0  0  0  0  0  0  0  0
    0.1344   -0.6519    1.9620 N   0  0  0  0  0  0  0  0  0  0  0  0
   -0.3517    0.2525    1.8235 H   0  0  0  0  0  0  0  0  0  0  0  0
   -0.2798   -1.3183    1.2900 H   0  0  0  0  0  0  0  0  0  0  0  0
    1.1455   -0.5059    1.7554 H   0  0  0  0  0  0  0  0  0  0  0  0
    0.0065   -0.9942    2.9111 H   0  0  0  0  0  0  0  0  0  0  0  0
    0.4438   -1.6778   -1.9477 N   0  0  0  0  0  0  0  0  0  0  0  0
    0.4834   -2.0181   -2.9044 H   0  0  0  0  0  0  0  0  0  0  0  0
    1.2859   -1.9489   -1.3923 H   0  0  0  0  0  0  0  0  0  0  0  0
    0.3953   -0.6491   -1.8988 H   0  0  0  0  0  0  0  0  0  0  0  0
   -0.3855   -2.0290   -1.4390 H   0  0  0  0  0  0  0  0  0  0  0  0
   -3.7197    1.8373    1.1586 N   0  0  0  0  0  0  0  0  0  0  0  0
   -4.1308    2.1291    0.2727 H   0  0  0  0  0  0  0  0  0  0  0  0
   -3.7714    0.7954    1.2469 H   0  0  0  0  0  0  0  0  0  0  0  0
   -2.6918    2.0488    1.1523 H   0  0  0  0  0  0  0  0  0  0  0  0
   -4.1925    2.3013    1.9314 H   0  0  0  0  0  0  0  0  0  0  0  0
   -2.7804   -1.3426   -0.0576 S   0  0  0  0  0  0  0  0  0  0  0  0
   -1.4821   -2.0572    0.0310 O   0  0  0  0  0  0  0  0  0  0  0  0
   -3.2141   -0.8406    1.2632 O   0  0  0  0  0  0  0  0  0  0  0  0
   -2.8329   -0.3350   -1.1259 O   0  0  0  0  0  0  0  0  0  0  0  0
   -3.8614   -2.4189   -0.5463 O   0  0  0  0  0  0  0  0  0  0  0  0
   -3.9357   -3.1340    0.1032 H   0  0  0  0  0  0  0  0  0  0  0  0
    3.2541   -0.8833    0.1893 S   0  0  0  0  0  0  0  0  0  0  0  0
    2.3603   -2.0357   -0.0489 O   0  0  0  0  0  0  0  0  0  0  0  0
    3.5920   -0.1482   -1.0413 O   0  0  0  0  0  0  0  0  0  0  0  0
    2.7775   -0.0041    1.2852 O   0  0  0  0  0  0  0  0  0  0  0  0
    4.6185   -1.4697    0.7992 O   0  0  0  0  0  0  0  0  0  0  0  0
    5.0248   -2.0841    0.1704 H   0  0  0  0  0  0  0  0  0  0  0  0
   -0.3863    1.9394   -0.3235 S   0  0  0  0  0  0  0  0  0  0  0  0
    0.4015    0.7383   -0.6664 O   0  0  0  0  0  0  0  0  0  0  0  0
   -1.0177    1.7710    1.0269 O   0  0  0  0  0  0  0  0  0  0  0  0
    0.3515    3.1922   -0.4714 O   0  0  0  0  0  0  0  0  0  0  0  0
   -1.6036    2.0361   -1.3480 O   0  0  0  0  0  0  0  0  0  0  0  0
   -2.0494    1.1517   -1.3785 H   0  0  0  0  0  0  0  0  0  0  0  0
  1  2  1  0  0  0  0
  1  3  1  0  0  0  0
  4  1  1  0  0  0  0
  5  1  1  0  0  0  0
  6 10  1  0  0  0  0
  7  6  1  0  0  0  0
  8  6  1  0  0  0  0
  9  6  1  0  0  0  0
 11 14  1  0  0  0  0
 11 15  1  0  0  0  0
 11 13  1  0  0  0  0
 12 11  1  0  0  0  0
 16 18  1  0  0  0  0
 16 20  1  0  0  0  0
 17 16  1  0  0  0  0
 19 16  1  0  0  0  0
 21 22  2  0  0  0  0
 21 23  1  0  0  0  0
 24 21  2  0  0  0  0
 25 21  1  0  0  0  0
 25 26  1  0  0  0  0
 27 31  1  0  0  0  0
 27 30  1  0  0  0  0
 28 27  2  0  0  0  0
 29 27  2  0  0  0  0
 32 31  1  0  0  0  0
 33 35  1  0  0  0  0
 34 33  2  0  0  0  0
 36 33  2  0  0  0  0
 37 33  1  0  0  0  0
 38 37  1  0  0  0  0
M  RAD  3  23   2  30   2  35   2
M  END
$$$$
