4sa_4a_H.log
 OpenBabel02281910143D
Gaussian users/kemi/kmacke/programs/G09D/g09/g09 # opt freq 6-31++g(d,p) wb97xd
 45 37  0  0  0  0  0  0  0  0999 V2000
    1.4794    2.1902    0.8887 S   0  0  0  0  0  0  0  0  0  0  0  0
    1.8849    2.9339   -0.3182 O   0  0  0  0  0  0  0  0  0  0  0  0
    0.4071    1.0714    0.4359 O   0  0  0  0  0  0  0  0  0  0  0  0
    2.6292    1.4354    1.4541 O   0  0  0  0  0  0  0  0  0  0  0  0
    0.7091    2.9643    1.8659 O   0  0  0  0  0  0  0  0  0  0  0  0
    0.8370    0.4095   -0.1553 H   0  0  0  0  0  0  0  0  0  0  0  0
    2.9731   -1.3697   -1.1075 S   0  0  0  0  0  0  0  0  0  0  0  0
    1.5623   -0.9220   -0.9665 O   0  0  0  0  0  0  0  0  0  0  0  0
    2.7806   -2.5881   -2.1553 O   0  0  0  0  0  0  0  0  0  0  0  0
    3.8449   -0.3872   -1.7607 O   0  0  0  0  0  0  0  0  0  0  0  0
    3.5265   -1.9382    0.1261 O   0  0  0  0  0  0  0  0  0  0  0  0
    3.6436   -2.9698   -2.3739 H   0  0  0  0  0  0  0  0  0  0  0  0
   -3.2015    0.8534   -1.6434 S   0  0  0  0  0  0  0  0  0  0  0  0
   -2.9852    2.1122   -0.9500 O   0  0  0  0  0  0  0  0  0  0  0  0
   -2.0711    0.1506   -2.2075 O   0  0  0  0  0  0  0  0  0  0  0  0
   -4.0460   -0.1030   -0.7403 O   0  0  0  0  0  0  0  0  0  0  0  0
   -1.9563    2.3530    1.7220 N   0  0  0  0  0  0  0  0  0  0  0  0
   -2.5742    2.8984    2.3181 H   0  0  0  0  0  0  0  0  0  0  0  0
   -1.9941    1.3531    1.9885 H   0  0  0  0  0  0  0  0  0  0  0  0
   -0.9690    2.6875    1.8087 H   0  0  0  0  0  0  0  0  0  0  0  0
   -2.2630    2.4210    0.7410 H   0  0  0  0  0  0  0  0  0  0  0  0
    2.1398   -1.1001    2.3884 N   0  0  0  0  0  0  0  0  0  0  0  0
    2.2950   -0.0797    2.2332 H   0  0  0  0  0  0  0  0  0  0  0  0
    2.7126   -1.5899    1.6753 H   0  0  0  0  0  0  0  0  0  0  0  0
    1.1456   -1.3309    2.2104 H   0  0  0  0  0  0  0  0  0  0  0  0
    2.4106   -1.3763    3.3286 H   0  0  0  0  0  0  0  0  0  0  0  0
   -0.6983   -2.2646   -1.7625 N   0  0  0  0  0  0  0  0  0  0  0  0
   -1.1285   -1.5892   -2.4018 H   0  0  0  0  0  0  0  0  0  0  0  0
   -1.3413   -2.3504   -0.9535 H   0  0  0  0  0  0  0  0  0  0  0  0
   -0.5451   -3.1614   -2.2173 H   0  0  0  0  0  0  0  0  0  0  0  0
    0.2082   -1.8652   -1.4346 H   0  0  0  0  0  0  0  0  0  0  0  0
    4.4058    2.1411   -0.8254 N   0  0  0  0  0  0  0  0  0  0  0  0
    5.0137    2.6945   -1.4245 H   0  0  0  0  0  0  0  0  0  0  0  0
    4.2858    1.1767   -1.2030 H   0  0  0  0  0  0  0  0  0  0  0  0
    4.7893    2.0793    0.1172 H   0  0  0  0  0  0  0  0  0  0  0  0
    3.4457    2.5699   -0.7397 H   0  0  0  0  0  0  0  0  0  0  0  0
   -1.8071   -1.6385    1.6434 S   0  0  0  0  0  0  0  0  0  0  0  0
   -2.2203   -0.3884    2.2868 O   0  0  0  0  0  0  0  0  0  0  0  0
   -2.2756   -2.8333    2.6055 O   0  0  0  0  0  0  0  0  0  0  0  0
   -0.3737   -1.8738    1.4877 O   0  0  0  0  0  0  0  0  0  0  0  0
   -3.1876   -2.6873    2.8976 H   0  0  0  0  0  0  0  0  0  0  0  0
   -4.2113    1.1170   -2.8359 O   0  0  0  0  0  0  0  0  0  0  0  0
   -2.5193   -1.8549    0.3387 O   0  0  0  0  0  0  0  0  0  0  0  0
   -4.7946    1.8641   -2.6315 H   0  0  0  0  0  0  0  0  0  0  0  0
   -3.4670   -0.7940   -0.2714 H   0  0  0  0  0  0  0  0  0  0  0  0
  1  4  2  0  0  0  0
  1  5  1  0  0  0  0
  2  1  2  0  0  0  0
  3  1  1  0  0  0  0
  6  3  1  0  0  0  0
  7  8  2  0  0  0  0
  7 11  1  0  0  0  0
  9  7  1  0  0  0  0
 10  7  2  0  0  0  0
 12  9  1  0  0  0  0
 13 14  2  0  0  0  0
 13 16  1  0  0  0  0
 15 13  2  0  0  0  0
 16 45  1  0  0  0  0
 17 20  1  0  0  0  0
 17 19  1  0  0  0  0
 17 18  1  0  0  0  0
 21 17  1  0  0  0  0
 22 26  1  0  0  0  0
 23 22  1  0  0  0  0
 24 22  1  0  0  0  0
 25 22  1  0  0  0  0
 27 31  1  0  0  0  0
 27 29  1  0  0  0  0
 28 27  1  0  0  0  0
 30 27  1  0  0  0  0
 32 36  1  0  0  0  0
 32 35  1  0  0  0  0
 33 32  1  0  0  0  0
 34 32  1  0  0  0  0
 37 38  1  0  0  0  0
 37 39  1  0  0  0  0
 39 41  1  0  0  0  0
 40 37  2  0  0  0  0
 42 44  1  0  0  0  0
 42 13  1  0  0  0  0
 43 37  2  0  0  0  0
M  RAD  3   5   2  11   2  38   2
M  END
$$$$
