4sa_5a_H_01.sdf 
 OpenBabel09072015113D
Besel et al., Gaussian 16, # opt freq 6-31++g(d,p) wb97xd
 49 40  0  0  0  0  0  0  0  0999 V2000
    0.4032   -0.1537   -1.7635 N   0  0  0  0  0  0  0  0  0  0  0  0
   -0.4224   -0.6411   -2.1375 H   0  0  0  0  0  0  0  0  0  0  0  0
    1.2757   -0.6952   -1.8519 H   0  0  0  0  0  0  0  0  0  0  0  0
    0.5209    0.7629   -2.1935 H   0  0  0  0  0  0  0  0  0  0  0  0
    0.2258    0.0075   -0.7535 H   0  0  0  0  0  0  0  0  0  0  0  0
    3.7841   -2.1810    1.1091 N   0  0  0  0  0  0  0  0  0  0  0  0
    3.7764   -3.1543    1.4034 H   0  0  0  0  0  0  0  0  0  0  0  0
    3.1418   -1.6081    1.6981 H   0  0  0  0  0  0  0  0  0  0  0  0
    4.7185   -1.7719    1.1513 H   0  0  0  0  0  0  0  0  0  0  0  0
    3.4490   -2.0686    0.1314 H   0  0  0  0  0  0  0  0  0  0  0  0
   -2.8050   -0.1731    2.3918 N   0  0  0  0  0  0  0  0  0  0  0  0
   -1.9182   -0.5402    2.7928 H   0  0  0  0  0  0  0  0  0  0  0  0
   -2.6358    0.7370    1.9226 H   0  0  0  0  0  0  0  0  0  0  0  0
   -3.1122   -0.8222    1.6453 H   0  0  0  0  0  0  0  0  0  0  0  0
   -3.5191   -0.0827    3.1099 H   0  0  0  0  0  0  0  0  0  0  0  0
   -3.7888    0.9421   -1.6901 N   0  0  0  0  0  0  0  0  0  0  0  0
   -3.5181    1.2912   -0.7409 H   0  0  0  0  0  0  0  0  0  0  0  0
   -3.1660    0.1356   -1.9256 H   0  0  0  0  0  0  0  0  0  0  0  0
   -4.7578    0.6300   -1.6926 H   0  0  0  0  0  0  0  0  0  0  0  0
   -3.6544    1.6960   -2.3621 H   0  0  0  0  0  0  0  0  0  0  0  0
    2.0227    2.1987    1.2837 N   0  0  0  0  0  0  0  0  0  0  0  0
    2.3516    2.0249    0.3105 H   0  0  0  0  0  0  0  0  0  0  0  0
    2.0953    1.3051    1.7972 H   0  0  0  0  0  0  0  0  0  0  0  0
    2.6004    2.9100    1.7248 H   0  0  0  0  0  0  0  0  0  0  0  0
    1.0283    2.5034    1.2555 H   0  0  0  0  0  0  0  0  0  0  0  0
    3.7521    0.2485   -1.1389 S   0  0  0  0  0  0  0  0  0  0  0  0
    2.8199    1.3939   -1.2531 O   0  0  0  0  0  0  0  0  0  0  0  0
    4.5779    0.2932    0.0724 O   0  0  0  0  0  0  0  0  0  0  0  0
    3.0650   -1.0541   -1.3340 O   0  0  0  0  0  0  0  0  0  0  0  0
    4.7226    0.3126   -2.4177 O   0  0  0  0  0  0  0  0  0  0  0  0
    5.2448    1.1277   -2.3933 H   0  0  0  0  0  0  0  0  0  0  0  0
    0.5315   -0.9325    1.8955 S   0  0  0  0  0  0  0  0  0  0  0  0
   -0.3331   -1.2713    3.0292 O   0  0  0  0  0  0  0  0  0  0  0  0
   -0.1158    0.0253    0.9681 O   0  0  0  0  0  0  0  0  0  0  0  0
    1.9054   -0.5112    2.2702 O   0  0  0  0  0  0  0  0  0  0  0  0
    0.8206   -2.2647    1.0534 O   0  0  0  0  0  0  0  0  0  0  0  0
   -0.0084   -2.5535    0.5934 H   0  0  0  0  0  0  0  0  0  0  0  0
   -2.5508   -2.1790   -0.9121 S   0  0  0  0  0  0  0  0  0  0  0  0
   -2.1881   -1.2886   -2.0544 O   0  0  0  0  0  0  0  0  0  0  0  0
   -1.3789   -2.8520   -0.3380 O   0  0  0  0  0  0  0  0  0  0  0  0
   -3.4470   -1.4961    0.0298 O   0  0  0  0  0  0  0  0  0  0  0  0
   -3.4846   -3.3350   -1.5160 O   0  0  0  0  0  0  0  0  0  0  0  0
   -2.9426   -3.9798   -1.9939 H   0  0  0  0  0  0  0  0  0  0  0  0
   -1.5965    2.7654    0.0949 S   0  0  0  0  0  0  0  0  0  0  0  0
   -0.6055    3.1076    1.1213 O   0  0  0  0  0  0  0  0  0  0  0  0
   -1.1073    2.1534   -1.1387 O   0  0  0  0  0  0  0  0  0  0  0  0
   -2.7660    2.0175    0.6594 O   0  0  0  0  0  0  0  0  0  0  0  0
   -2.2178    4.1666   -0.4237 O   0  0  0  0  0  0  0  0  0  0  0  0
   -2.4066    4.7381    0.3345 H   0  0  0  0  0  0  0  0  0  0  0  0
  1  5  1  0  0  0  0
  2  1  1  0  0  0  0
  3  1  1  0  0  0  0
  4  1  1  0  0  0  0
  6  9  1  0  0  0  0
  6  7  1  0  0  0  0
  6  8  1  0  0  0  0
 10  6  1  0  0  0  0
 11 12  1  0  0  0  0
 11 15  1  0  0  0  0
 13 11  1  0  0  0  0
 14 11  1  0  0  0  0
 16 17  1  0  0  0  0
 18 16  1  0  0  0  0
 19 16  1  0  0  0  0
 20 16  1  0  0  0  0
 21 24  1  0  0  0  0
 21 23  1  0  0  0  0
 22 21  1  0  0  0  0
 25 21  1  0  0  0  0
 26 28  1  0  0  0  0
 27 26  2  0  0  0  0
 29 26  2  0  0  0  0
 30 31  1  0  0  0  0
 30 26  1  0  0  0  0
 32 35  2  0  0  0  0
 32 33  1  0  0  0  0
 34 32  2  0  0  0  0
 36 32  1  0  0  0  0
 37 36  1  0  0  0  0
 38 40  2  0  0  0  0
 38 41  1  0  0  0  0
 39 38  2  0  0  0  0
 42 38  1  0  0  0  0
 43 42  1  0  0  0  0
 44 47  2  0  0  0  0
 44 45  1  0  0  0  0
 46 44  2  0  0  0  0
 48 44  1  0  0  0  0
 48 49  1  0  0  0  0
M  RAD  4  28   2  33   2  41   2  45   2
M  END
$$$$
4sa_5a_H_02.sdf 
 OpenBabel09072015113D
Besel et al., Gaussian 16, # opt freq 6-31++g(d,p) wb97xd
 49 40  0  0  0  0  0  0  0  0999 V2000
    0.0629    1.1689   -2.8068 N   0  0  0  0  0  0  0  0  0  0  0  0
    1.0329    1.2558   -2.4512 H   0  0  0  0  0  0  0  0  0  0  0  0
    0.0477    1.1947   -3.8233 H   0  0  0  0  0  0  0  0  0  0  0  0
   -0.3301    0.2805   -2.4636 H   0  0  0  0  0  0  0  0  0  0  0  0
   -0.5211    1.9173   -2.3938 H   0  0  0  0  0  0  0  0  0  0  0  0
   -2.2228   -0.3628    2.7718 N   0  0  0  0  0  0  0  0  0  0  0  0
   -1.3951   -0.8682    3.1433 H   0  0  0  0  0  0  0  0  0  0  0  0
   -1.9353    0.5710    2.4235 H   0  0  0  0  0  0  0  0  0  0  0  0
   -2.5995   -0.8482    1.9382 H   0  0  0  0  0  0  0  0  0  0  0  0
   -2.9369   -0.2721    3.4905 H   0  0  0  0  0  0  0  0  0  0  0  0
   -4.0009    1.6099   -0.7260 N   0  0  0  0  0  0  0  0  0  0  0  0
   -4.5032    2.2005   -0.0661 H   0  0  0  0  0  0  0  0  0  0  0  0
   -3.7893    0.6867   -0.2851 H   0  0  0  0  0  0  0  0  0  0  0  0
   -4.5618    1.4688   -1.5637 H   0  0  0  0  0  0  0  0  0  0  0  0
   -3.0817    2.0749   -0.9590 H   0  0  0  0  0  0  0  0  0  0  0  0
    0.8322   -3.2150   -0.3709 N   0  0  0  0  0  0  0  0  0  0  0  0
    1.2580   -2.4829   -0.9786 H   0  0  0  0  0  0  0  0  0  0  0  0
    1.0164   -4.1436   -0.7429 H   0  0  0  0  0  0  0  0  0  0  0  0
    1.2415   -3.1083    0.5648 H   0  0  0  0  0  0  0  0  0  0  0  0
   -0.1929   -3.0378   -0.3285 H   0  0  0  0  0  0  0  0  0  0  0  0
    2.5182    2.5142    0.9108 N   0  0  0  0  0  0  0  0  0  0  0  0
    2.3090    1.7033    1.5278 H   0  0  0  0  0  0  0  0  0  0  0  0
    1.6803    3.1247    0.9046 H   0  0  0  0  0  0  0  0  0  0  0  0
    3.3385    3.0143    1.2439 H   0  0  0  0  0  0  0  0  0  0  0  0
    2.6694    2.1492   -0.0449 H   0  0  0  0  0  0  0  0  0  0  0  0
    1.0202   -0.8559    2.3044 S   0  0  0  0  0  0  0  0  0  0  0  0
    1.6775    0.4288    2.5623 O   0  0  0  0  0  0  0  0  0  0  0  0
    0.3221   -1.4658    3.4333 O   0  0  0  0  0  0  0  0  0  0  0  0
    0.1200   -0.8042    1.1018 O   0  0  0  0  0  0  0  0  0  0  0  0
    2.1715   -1.9055    1.8926 O   0  0  0  0  0  0  0  0  0  0  0  0
    2.7843   -1.4389    1.2692 H   0  0  0  0  0  0  0  0  0  0  0  0
    0.0600    0.4942    0.3841 H   0  0  0  0  0  0  0  0  0  0  0  0
    2.9837   -0.2620   -1.3985 S   0  0  0  0  0  0  0  0  0  0  0  0
    2.7248    1.1755   -1.6674 O   0  0  0  0  0  0  0  0  0  0  0  0
    3.4500   -0.4849   -0.0180 O   0  0  0  0  0  0  0  0  0  0  0  0
    1.8708   -1.1181   -1.8363 O   0  0  0  0  0  0  0  0  0  0  0  0
    4.1779   -0.7153   -2.3731 O   0  0  0  0  0  0  0  0  0  0  0  0
    5.0016   -0.2746   -2.1178 H   0  0  0  0  0  0  0  0  0  0  0  0
   -2.5953   -1.5651   -0.8969 S   0  0  0  0  0  0  0  0  0  0  0  0
   -1.8929   -2.7904   -0.5008 O   0  0  0  0  0  0  0  0  0  0  0  0
   -3.3223   -0.9323    0.2447 O   0  0  0  0  0  0  0  0  0  0  0  0
   -1.8409   -0.5835   -1.6758 O   0  0  0  0  0  0  0  0  0  0  0  0
   -3.7543   -2.0179   -1.9308 O   0  0  0  0  0  0  0  0  0  0  0  0
   -4.1930   -2.8134   -1.5958 H   0  0  0  0  0  0  0  0  0  0  0  0
   -0.8900    2.5049    0.2557 S   0  0  0  0  0  0  0  0  0  0  0  0
    0.1783    1.3807   -0.1026 O   0  0  0  0  0  0  0  0  0  0  0  0
   -1.5705    2.7625   -1.0562 O   0  0  0  0  0  0  0  0  0  0  0  0
   -1.8463    1.9338    1.2276 O   0  0  0  0  0  0  0  0  0  0  0  0
   -0.0937    3.6359    0.7281 O   0  0  0  0  0  0  0  0  0  0  0  0
  1  4  1  0  0  0  0
  1  2  1  0  0  0  0
  1  5  1  0  0  0  0
  3  1  1  0  0  0  0
  6  7  1  0  0  0  0
  6 10  1  0  0  0  0
  8  6  1  0  0  0  0
  9  6  1  0  0  0  0
 11 13  1  0  0  0  0
 11 12  1  0  0  0  0
 14 11  1  0  0  0  0
 15 11  1  0  0  0  0
 16 20  1  0  0  0  0
 16 19  1  0  0  0  0
 17 16  1  0  0  0  0
 18 16  1  0  0  0  0
 21 24  1  0  0  0  0
 21 22  1  0  0  0  0
 23 21  1  0  0  0  0
 25 21  1  0  0  0  0
 26 27  2  0  0  0  0
 26 28  1  0  0  0  0
 29 26  2  0  0  0  0
 30 26  1  0  0  0  0
 31 30  1  0  0  0  0
 33 35  1  0  0  0  0
 34 33  2  0  0  0  0
 36 33  2  0  0  0  0
 37 38  1  0  0  0  0
 37 33  1  0  0  0  0
 39 40  2  0  0  0  0
 39 41  1  0  0  0  0
 42 39  2  0  0  0  0
 43 44  1  0  0  0  0
 43 39  1  0  0  0  0
 45 49  2  0  0  0  0
 45 48  1  0  0  0  0
 46 45  1  0  0  0  0
 46 32  1  0  0  0  0
 47 45  2  0  0  0  0
M  RAD  4  28   2  35   2  41   2  48   2
M  END
$$$$
