59
4sa3ma1dma-32
S        0.75624800       2.67397100      -1.07417400
O        1.68689800       2.82961500       0.05650700
O        0.18696600       3.87785900      -1.64109300
O        1.58225200       1.97078400      -2.26322100
O       -0.31862200       1.65759900      -0.73393800
H        0.06179800       0.67110100       0.36258400
H        2.25083300       1.35274800      -1.88062200
S        3.21151000      -1.20852200      -0.75205400
O        3.30566900       0.19617000      -1.18988700
O        3.51074500      -1.37578300       0.67916700
O        1.97896000      -1.89673600      -1.18874600
O        4.34682500      -2.01933200      -1.57120400
H        5.20615400      -1.61044800      -1.39782200
S       -3.16653300      -1.58853300      -0.68667400
O       -1.94963700      -2.43237500      -0.95488400
O       -2.85965100      -0.19950400      -1.12764700
O       -4.40847400      -2.13502600      -1.18147900
O       -3.33774300      -1.54539100       0.90928000
H       -2.48904600      -1.41340500       1.40360400
S       -0.39942300       0.00856600       2.40649900
O        0.66763900       0.10231500       3.40958400
O       -1.12193000      -1.29580800       2.45051700
O       -1.30391700       1.16456800       2.34689000
O        0.37510400      -0.05529400       0.99364100
C       -0.56640500      -0.37907500      -3.77650400
N       -0.27263500      -0.64289500      -2.35255800
H       -0.92142300      -1.34236300      -1.94359300
H        0.68229400      -0.99029600      -2.18801700
H       -1.60647900      -0.06440800      -3.85591000
H        0.09288600       0.41363700      -4.12941400
H       -0.40926700      -1.28958000      -4.35417100
H       -0.39164300       0.22415400      -1.79695200
C        0.54002300      -4.44303200       0.96003800
N        0.14937400      -3.04700700       0.67988200
H       -0.68854100      -2.97465400       0.06377200
H       -0.11711800      -2.52061700       1.52980000
H        0.78332600      -4.93910600       0.02101700
H        1.41211400      -4.44645800       1.61318300
H       -0.28995000      -4.95638900       1.44456600
H        0.90324500      -2.53180600       0.19757800
C        3.97500500       1.85867800       2.51532500
N        2.84497800       1.10926900       1.93194300
H        2.11960500       0.85987000       2.62929300
H        2.38100500       1.66516000       1.18656500
H        4.44534100       1.25828100       3.29379300
H        4.69602700       2.07934600       1.72876300
H        3.60282800       2.79066700       2.93942300
H        3.14842400       0.21601600       1.50778200
C       -4.25310200       1.76953000       1.17493800
N       -3.03516200       2.04701800       0.37989100
C       -3.02594300       3.36408400      -0.29260500
H       -2.21614100       1.93703100       1.00078400
H       -5.12297600       1.82026400       0.51873000
H       -4.16831200       0.76719700       1.59403100
H       -4.33658900       2.50686400       1.97418400
H       -3.87290200       3.41321400      -0.97860000
H       -3.11509100       4.14863600       0.46047400
H       -2.09046900       3.47924200      -0.83980000
H       -2.93078100       1.27329000      -0.31175000
59
4sa3ma1dma-25
S        0.82120200       2.76327200      -1.05668800
O        1.75952900       2.89607400       0.07126000
O        0.24659200       3.98090700      -1.58671500
O        1.65023100       2.11397400      -2.27490000
O       -0.24129100       1.72665600      -0.74041600
H        0.14025600       0.69768400       0.35177200
H        2.18990800       1.36645700      -1.93786500
S        3.12714300      -1.47335400      -0.78298000
O        3.68928100      -1.10150500       0.52372100
O        2.27163600      -2.67236600      -0.74108500
O        2.51288300      -0.35882000      -1.53351500
O        4.38667900      -1.85479200      -1.72973800
H        4.83635900      -2.62011400      -1.34499700
S       -3.08450600      -1.50727300      -0.74066000
O       -1.83849700      -2.32451100      -0.95239700
O       -2.80991700      -0.11542200      -1.18566300
O       -4.29494700      -2.09961400      -1.25951300
O       -3.30024100      -1.45538800       0.85582000
H       -2.46536800      -1.31451400       1.36364100
S       -0.34417500       0.05711500       2.39443600
O        0.73664700       0.14288700       3.38337000
O       -1.09944800      -1.22255900       2.47245100
O       -1.21511600       1.24158600       2.32658100
O        0.41300500      -0.04755000       0.97432500
C       -0.61657900      -0.38883600      -3.79155400
N       -0.19329300      -0.51602300      -2.38204500
H       -0.38743500       0.36108200      -1.86028700
H       -0.71684600      -1.26714000      -1.89477400
H       -0.08818300       0.45049900      -4.24314800
H       -0.38479700      -1.30991200      -4.32568900
H       -1.69128500      -0.20981800      -3.80744900
H        0.81754500      -0.68117100      -2.27371400
C       -0.27130400      -4.56406800       1.26568900
N        0.01446300      -3.18686400       0.81928800
H       -0.70279100      -2.85306000       0.13349400
H       -0.04770500      -2.51390500       1.59658900
H       -0.27223300      -5.22622900       0.40045900
H        0.49150000      -4.88196100       1.97608500
H       -1.25149700      -4.58318800       1.74160800
H        0.93083100      -3.08984300       0.34695900
C        4.01263100       1.91540900       2.56724200
N        2.89979400       1.18439500       1.93286900
H        2.40699600       1.78454500       1.24358200
H        3.22184700       0.34734100       1.41456300
H        3.61672700       2.78452700       3.09168400
H        4.52349400       1.25893500       3.27121400
H        4.70880600       2.24243500       1.79532200
H        2.18841400       0.85447700       2.61315900
C       -4.22693700       1.79543200       1.11384400
N       -2.97227500       2.10233800       0.38862300
C       -2.92926900       3.45448300      -0.20880900
H       -2.18038200       1.95243600       1.04077400
H       -5.06637700       1.88393500       0.42297300
H       -4.16849000       0.77316400       1.48711300
H       -4.34225700       2.49507700       1.94266100
H       -3.75605600       3.55222100      -0.91412000
H       -3.03222500       4.19598700       0.58493100
H       -1.97878400       3.58974400      -0.72433600
H       -2.84286200       1.36626800      -0.33622300
59
4sa3ma1dma-31
S        0.96866900       2.60999400      -1.30267100
O        1.83339400       3.04420700      -0.19110000
O        0.40780900       3.64646300      -2.14026200
O        1.84974600       1.68473600      -2.27399800
O       -0.10373200       1.66372200      -0.78532700
H        0.10785900       0.53334700       0.34383300
H        2.34118800       1.01072400      -1.74201200
S        2.93585100      -1.63743800      -0.61167900
O        3.16145900      -2.19807700       0.71523400
O        1.73527900      -2.19414100      -1.28606100
O        2.99120900      -0.15754300      -0.66350200
O        4.19491900      -2.03613800      -1.55053900
H        4.31678500      -2.99487300      -1.51430300
S       -3.29323800      -1.27988500      -0.61056300
O       -2.18850600      -2.22128500      -1.03680700
O       -2.83965200       0.11467700      -0.81264700
O       -4.58520300      -1.63157300      -1.15787100
O       -3.40716400      -1.49504600       0.97995700
H       -2.83345300      -0.84495300       1.45207700
S       -0.41134600      -0.08204800       2.39297200
O       -0.28542400      -1.42775700       2.95460000
O       -1.82363300       0.34559700       2.19333500
O        0.39071800       0.97126400       3.04038700
O        0.21497200      -0.27719000       0.91556100
C       -0.61166600      -0.37422500      -3.81189500
N       -0.38131300      -0.66537600      -2.38225000
H       -1.11389200      -1.29145500      -1.97643300
H        0.52505500      -1.12043100      -2.19988500
H       -1.60260900       0.06621400      -3.91855800
H        0.14642200       0.32835600      -4.15779700
H       -0.55806700      -1.30086900      -4.38269400
H       -0.40973100       0.20681000      -1.82916000
C       -0.29731400      -4.58869200       0.87402100
N       -0.24330200      -3.12891500       0.65908400
H       -1.06993500      -2.79275600       0.11166600
H       -0.21787200      -2.60786400       1.55307000
H       -0.33774900      -5.09031000      -0.09247900
H        0.58990200      -4.90527000       1.42186600
H       -1.19307500      -4.82775500       1.44623400
H        0.58354400      -2.84867800       0.11154700
C        4.05931200       1.60863900       2.45735000
N        2.81226900       1.30838900       1.72618300
H        2.51270200       2.08172000       1.10019200
H        2.92702500       0.50976500       1.08484800
H        3.89969100       2.47581600       3.09737400
H        4.33297800       0.74648300       3.06464300
H        4.85098300       1.82026700       1.73923600
H        2.00996700       1.11203200       2.35604600
C       -1.64643100       3.58481900       1.25818300
N       -2.37088800       2.52235200       0.52430500
C       -3.73054700       2.89033600       0.07208400
H       -1.78599100       2.22585500      -0.27383900
H       -2.23850100       3.88747700       2.12246900
H       -0.68921900       3.18402600       1.59185700
H       -1.48170300       4.43183900       0.59103100
H       -4.34141100       3.12946900       0.94356800
H       -3.66075300       3.75949900      -0.58341000
H       -4.14364800       2.03699500      -0.46415100
H       -2.39247900       1.67281000       1.11682400
