58
3sa1ma3dma-23
S       -2.94543600      -1.48583700      -0.54159000
O       -3.31554300      -0.78851800       0.72729400
O       -1.67960700      -2.25673700      -0.30943800
O       -4.01169800      -2.22960800      -1.17569200
O       -2.55551600      -0.32263800      -1.57500600
H       -1.68634800       0.12305100      -1.30310100
S        3.05085800      -1.06197000       1.04118800
O        2.95735400      -0.76802300      -0.43961900
O        1.97256700      -2.00933200       1.40959600
O        4.38905700      -1.40062300       1.47647200
O        2.72404000       0.33728500       1.75145800
H        1.79514000       0.67326900       1.54865400
S       -0.05318900       1.83071900      -0.01134600
O       -1.29551200       2.64079700       0.12268800
O       -0.27838800       0.67951700      -0.96409800
O        1.06825300       2.68338700      -0.49338600
O        0.31132200       1.23474000       1.34005900
C       -1.34415500      -1.40271700       3.31770000
N       -0.58552000      -1.24438000       2.06389700
H       -1.07325600      -1.68580100       1.26181400
H       -0.43846500      -0.24175700       1.80903100
H       -1.39713300      -2.45988700       3.57797700
H       -0.84389900      -0.85191300       4.11435300
H       -2.35118600      -1.01808400       3.15945600
H        0.36814000      -1.64533500       2.08986000
C        4.54313400       2.39446700      -0.00031700
N        3.53042400       1.84729100      -0.92600300
C        3.77184300       2.14313200      -2.34951000
H        3.44966800       0.81445500      -0.78836300
H        4.55089300       3.48275300      -0.08018400
H        4.27524100       2.09039300       1.01132700
H        5.52475800       1.99146300      -0.25610000
H        3.79185900       3.22430500      -2.49515000
H        4.72296300       1.70723400      -2.66096900
H        2.95603600       1.71807000      -2.93471700
H        2.56381800       2.20318800      -0.67293900
C       -4.61112000       2.12582700      -0.85709700
N       -3.80173700       1.85307500       0.34716300
C       -4.27781700       2.51899200       1.57343400
H       -3.74500100       0.82026400       0.50523700
H       -4.57961200       3.19429100      -1.07660800
H       -4.18711000       1.55705000      -1.68443400
H       -5.64100200       1.80881100      -0.68262300
H       -4.27512300       3.59944900       1.42151900
H       -5.28682000       2.17674800       1.81057900
H       -3.59866000       2.27022900       2.38904800
H       -2.79613900       2.14303400       0.18368700
C        1.17693900      -3.40976800      -1.44225500
N        0.75683900      -1.99658900      -1.56276700
C        0.54372700      -1.54224500      -2.95283900
H       -0.13311700      -1.88376600      -1.04144100
H        2.10183900      -3.55480100      -2.00234800
H        1.35312100      -3.62025300      -0.38775900
H        0.38583400      -4.04980700      -1.83481000
H        1.46411900      -1.69302500      -3.51999700
H       -0.26885600      -2.11994600      -3.39579600
H        0.27882100      -0.48593600      -2.92361500
H        1.47776500      -1.39822200      -1.10696900
58
3sa1ma3dma-21
S       -1.54958700      -2.19472700      -0.54950800
O       -2.55562700      -1.75396000      -1.53733700
O       -2.08454300      -2.13664100       0.83536500
O       -0.87350000      -3.46577100      -0.87389900
O       -0.33879400      -1.15209300      -0.60154800
H       -0.64475500      -0.17063300      -0.60577100
S        2.97424500       0.14164200       0.56217200
O        2.44966100       0.43452600      -0.80222400
O        2.36832200      -1.14238600       1.05527500
O        4.41689300       0.19610500       0.69041000
O        2.41564800       1.30263600       1.50943300
H        1.41165100       1.37237400       1.48785100
S       -1.14027000       2.06372600       0.63369300
O       -0.69379000       3.44978100       0.33468400
O       -0.17518500       1.44165900       1.63057400
O       -2.52207700       1.99125900       1.17921300
O       -1.07563000       1.25080500      -0.65102100
C        0.04538000      -1.33866400       3.89163400
N       -0.06800100      -1.09773700       2.44255000
H       -0.81244900      -1.65550800       1.98197300
H       -0.28646800      -0.09534800       2.22352100
H        0.28747500      -2.38611400       4.07287200
H        0.83550200      -0.70553400       4.29536900
H       -0.90114300      -1.09230700       4.37268900
H        0.82896000      -1.26100300       1.94713400
C        0.96334700       3.04270000      -2.59930900
N        1.47553000       2.95330600      -1.21796800
C        2.66237000       3.78374600      -0.93212300
H        0.68808500       3.21021600      -0.56699900
H        1.73248200       2.69983600      -3.29375800
H        0.07934300       2.40738600      -2.66191500
H        0.69421300       4.07734200      -2.81825100
H        3.47577300       3.49045500      -1.59767000
H        2.41278800       4.83572600      -1.07938500
H        2.95996500       3.60793500       0.10200100
H        1.72903700       1.95746200      -1.02617200
C       -5.00374200      -0.39861600       0.43059100
N       -3.97908000       0.31157200      -0.35987700
C       -4.50695900       1.24532400      -1.37329200
H       -3.36351500       0.87076100       0.28525000
H       -5.66491300      -0.94636700      -0.24304200
H       -4.49054100      -1.10037800       1.08843000
H       -5.57500800       0.32556500       1.01360400
H       -5.10516500       0.69410400      -2.10084300
H       -5.11533400       2.00441800      -0.87946500
H       -3.65746400       1.72013400      -1.86424200
H       -3.38376100      -0.40142400      -0.83321600
C        2.02410000      -2.21540300      -2.42911500
N        1.82333700      -2.81986100      -1.09389000
C        2.79494700      -3.87679900      -0.75174900
H        1.88799700      -2.07379700      -0.36813600
H        1.93292400      -2.99439600      -3.18805800
H        1.25876700      -1.45372300      -2.56452000
H        3.00910000      -1.74980100      -2.46447900
H        2.73337100      -4.68031200      -1.48728400
H        3.79779700      -3.44786500      -0.74244200
H        2.55848100      -4.26241900       0.23967100
H        0.84641000      -3.17908200      -1.03337200
58
3sa1ma3dma-11
S       -2.58273500       1.44397900       0.27137200
O       -1.47686100       1.50570500       1.25553800
O       -3.71582600       0.60517900       0.71235500
O       -1.98366700       0.72419000      -1.03417300
O       -2.95949100       2.78525400      -0.20870000
H       -1.19764700       0.11705800      -0.82346400
H        1.33484300       0.09135000      -0.98424500
S        2.68505200       1.33739300       0.18255700
O        2.91926200       0.16277900       1.09576000
O        1.59290400       2.16947900       0.73689900
O        3.89042700       2.04068500      -0.21243600
O        2.12744700       0.68397100      -1.17810400
S       -0.14332500      -2.27156100      -0.50470000
O       -0.41928900      -2.56343700       0.93814900
O       -1.30854100      -2.64644700      -1.35188000
O        0.05874100      -0.74638700      -0.61085700
O        1.10052700      -2.93872700      -0.97948800
C        0.22568800      -0.15096500       3.72210800
N        0.35363600      -0.27528600       2.26036600
H        1.32167900      -0.10623500       1.93610800
H        0.06230700      -1.21014000       1.89625900
H        0.55070400       0.84428300       4.02499100
H       -0.81841800      -0.29141600       4.00178100
H        0.84337200      -0.90487700       4.21111400
H       -0.25833400       0.41483800       1.78211500
C        0.00357700       3.26058400      -2.05893400
N       -0.28891500       3.57142500      -0.64089400
C        0.15719600       4.91144400      -0.20794100
H       -1.30891400       3.45045000      -0.46819900
H        1.08469900       3.24142600      -2.20123400
H       -0.41963900       2.28213900      -2.28408500
H       -0.45551100       4.02030300      -2.69338000
H        1.23943900       4.97567700      -0.32610000
H       -0.33958500       5.67192100      -0.81231500
H       -0.10291400       5.04019500       0.84235200
H        0.21377800       2.87560800      -0.05014200
C       -3.86994400      -2.96676600       0.73892900
N       -3.65157500      -1.94466600      -0.30432500
C       -4.68289900      -1.89830600      -1.35831600
H       -3.60536600      -0.99992900       0.13621500
H       -3.96846300      -3.94446400       0.26457100
H       -2.99500400      -2.97324300       1.39014800
H       -4.77304500      -2.72763400       1.30322200
H       -4.69919700      -2.85201900      -1.88816600
H       -5.65668300      -1.69947000      -0.90757100
H       -4.42754700      -1.09458300      -2.04884000
H       -2.71156900      -2.14479600      -0.74931200
C        4.32090100      -1.74137200      -1.52841100
N        3.51922700      -2.08923600      -0.33687900
C        4.09276800      -3.16106300       0.49800200
H        3.37848500      -1.23033300       0.24217700
H        4.39481200      -2.61525700      -2.17761200
H        3.81855400      -0.92531700      -2.04746100
H        5.31508500      -1.41771300      -1.21516500
H        4.19968900      -4.06602600      -0.10204100
H        5.06574500      -2.84826500       0.88113400
H        3.41146900      -3.35883500       1.32583000
H        2.54391500      -2.38661000      -0.63134200
