1sa_3a_2moa.log
 OpenBabel02281910263D
Gaussian groups/kemi/kmacke/programs/G09D/g09/g09 # opt freq wb97xd/6-31++g(d,p)
 41 35  0  0  0  0  0  0  0  0999 V2000
    3.4415    2.8860   -1.2912 N   0  0  0  0  0  0  0  0  0  0  0  0
    2.4352    2.9985   -1.1385 H   0  0  0  0  0  0  0  0  0  0  0  0
    3.6170    2.9858   -2.2866 H   0  0  0  0  0  0  0  0  0  0  0  0
    3.9188    3.6454   -0.8159 H   0  0  0  0  0  0  0  0  0  0  0  0
   -4.5334   -0.7186    0.6696 N   0  0  0  0  0  0  0  0  0  0  0  0
   -5.0439   -0.4657   -0.1714 H   0  0  0  0  0  0  0  0  0  0  0  0
   -5.1960   -1.0841    1.3452 H   0  0  0  0  0  0  0  0  0  0  0  0
   -3.8642   -1.4531    0.4217 H   0  0  0  0  0  0  0  0  0  0  0  0
   -0.5556   -0.6551    2.2205 N   0  0  0  0  0  0  0  0  0  0  0  0
    0.3414   -1.1591    2.1055 H   0  0  0  0  0  0  0  0  0  0  0  0
   -0.8520   -0.6339    3.1908 H   0  0  0  0  0  0  0  0  0  0  0  0
   -0.4536    0.2980    1.8476 H   0  0  0  0  0  0  0  0  0  0  0  0
   -1.1270   -1.5408   -0.8954 S   0  0  0  0  0  0  0  0  0  0  0  0
   -0.4314   -2.6864   -1.4929 O   0  0  0  0  0  0  0  0  0  0  0  0
   -0.2727   -0.3863   -0.5762 O   0  0  0  0  0  0  0  0  0  0  0  0
   -2.1650   -1.0740   -2.0276 O   0  0  0  0  0  0  0  0  0  0  0  0
   -2.4872   -0.1771   -1.7890 H   0  0  0  0  0  0  0  0  0  0  0  0
   -1.9643   -1.9195    0.2871 O   0  0  0  0  0  0  0  0  0  0  0  0
   -1.2420   -1.1626    1.6048 H   0  0  0  0  0  0  0  0  0  0  0  0
    0.5377    3.0739   -0.7567 O   0  0  0  0  0  0  0  0  0  0  0  0
   -2.8634    1.2100    1.2103 O   0  0  0  0  0  0  0  0  0  0  0  0
   -2.9345    1.4112   -1.0222 O   0  0  0  0  0  0  0  0  0  0  0  0
   -1.6528    3.0078    0.2269 C   0  0  0  0  0  0  0  0  0  0  0  0
   -2.5446    1.7851    0.0749 C   0  0  0  0  0  0  0  0  0  0  0  0
   -1.8398    3.4708    1.1990 H   0  0  0  0  0  0  0  0  0  0  0  0
   -1.8824    3.7020   -0.5795 H   0  0  0  0  0  0  0  0  0  0  0  0
    1.1880    1.6318    1.0086 H   0  0  0  0  0  0  0  0  0  0  0  0
   -3.5552    0.4431    1.0350 H   0  0  0  0  0  0  0  0  0  0  0  0
   -0.1783    2.6721    0.1347 C   0  0  0  0  0  0  0  0  0  0  0  0
    0.2571    1.9455    1.1613 O   0  0  0  0  0  0  0  0  0  0  0  0
    2.5447    0.6750    1.1194 O   0  0  0  0  0  0  0  0  0  0  0  0
    2.1290   -2.5351   -0.7824 O   0  0  0  0  0  0  0  0  0  0  0  0
    1.4230   -2.3623    1.3422 O   0  0  0  0  0  0  0  0  0  0  0  0
    3.5684   -1.4583    0.7388 C   0  0  0  0  0  0  0  0  0  0  0  0
    2.2614   -2.1803    0.4715 C   0  0  0  0  0  0  0  0  0  0  0  0
    4.3611   -1.8443    0.0994 H   0  0  0  0  0  0  0  0  0  0  0  0
    3.8193   -1.5738    1.7940 H   0  0  0  0  0  0  0  0  0  0  0  0
    3.8162    1.4694   -0.7793 H   0  0  0  0  0  0  0  0  0  0  0  0
    1.1800   -2.7583   -0.9996 H   0  0  0  0  0  0  0  0  0  0  0  0
    3.3434    0.0190    0.4509 C   0  0  0  0  0  0  0  0  0  0  0  0
    4.0546    0.4806   -0.5303 O   0  0  0  0  0  0  0  0  0  0  0  0
  1  2  1  0  0  0  0
  1  4  1  0  0  0  0
  3  1  1  0  0  0  0
  5  7  1  0  0  0  0
  6  5  1  0  0  0  0
  8  5  1  0  0  0  0
  9 11  1  0  0  0  0
 10  9  1  0  0  0  0
 12  9  1  0  0  0  0
 13 15  2  0  0  0  0
 13 18  1  0  0  0  0
 14 13  2  0  0  0  0
 16 17  1  0  0  0  0
 16 13  1  0  0  0  0
 19  9  1  0  0  0  0
 20 29  2  0  0  0  0
 22 24  2  0  0  0  0
 23 25  1  0  0  0  0
 24 23  1  0  0  0  0
 24 21  1  0  0  0  0
 26 23  1  0  0  0  0
 27 30  1  0  0  0  0
 28 21  1  0  0  0  0
 29 23  1  0  0  0  0
 29 30  1  0  0  0  0
 32 35  1  0  0  0  0
 34 37  1  0  0  0  0
 35 34  1  0  0  0  0
 35 33  2  0  0  0  0
 36 34  1  0  0  0  0
 38 41  1  0  0  0  0
 39 32  1  0  0  0  0
 40 34  1  0  0  0  0
 40 31  2  0  0  0  0
 41 40  1  0  0  0  0
M  RAD  1  18   2
M  END
$$$$
