1sa_2a_1moa.log
 OpenBabel02281910263D
Gaussian groups/kemi/kmacke/programs/G09D/g09/g09 # opt freq wb97xd/6-31++g(d,p)
 26 22  0  0  0  0  0  0  0  0999 V2000
   -5.4118    1.5573   -0.4482 N   0  0  0  0  0  0  0  0  0  0  0  0
   -6.1218    1.7511    0.2511 H   0  0  0  0  0  0  0  0  0  0  0  0
   -5.8465    1.6381   -1.3622 H   0  0  0  0  0  0  0  0  0  0  0  0
   -4.6968    2.2758   -0.3781 H   0  0  0  0  0  0  0  0  0  0  0  0
    0.1434    1.9394    0.5940 N   0  0  0  0  0  0  0  0  0  0  0  0
   -0.0427    2.9366    0.6453 H   0  0  0  0  0  0  0  0  0  0  0  0
    0.5403    1.6074    1.4748 H   0  0  0  0  0  0  0  0  0  0  0  0
   -0.7291    1.4178    0.3939 H   0  0  0  0  0  0  0  0  0  0  0  0
    2.9638    0.3235   -0.1312 S   0  0  0  0  0  0  0  0  0  0  0  0
    4.3649    0.6330    0.0010 O   0  0  0  0  0  0  0  0  0  0  0  0
    2.2504    0.0393    1.1629 O   0  0  0  0  0  0  0  0  0  0  0  0
    2.1517    1.3249   -0.8983 O   0  0  0  0  0  0  0  0  0  0  0  0
    0.9238    1.7249   -0.1406 H   0  0  0  0  0  0  0  0  0  0  0  0
    2.8871   -1.0361   -0.9728 O   0  0  0  0  0  0  0  0  0  0  0  0
    1.9410   -1.2874   -1.0667 H   0  0  0  0  0  0  0  0  0  0  0  0
   -2.3249    0.6498    0.0788 O   0  0  0  0  0  0  0  0  0  0  0  0
   -0.0232   -1.0900    1.3196 O   0  0  0  0  0  0  0  0  0  0  0  0
    0.1652   -1.5628   -0.8713 O   0  0  0  0  0  0  0  0  0  0  0  0
   -1.9766   -1.7528    0.1753 C   0  0  0  0  0  0  0  0  0  0  0  0
   -0.4930   -1.4692    0.1528 C   0  0  0  0  0  0  0  0  0  0  0  0
   -2.2621   -2.2322    1.1163 H   0  0  0  0  0  0  0  0  0  0  0  0
   -2.2359   -2.4217   -0.6470 H   0  0  0  0  0  0  0  0  0  0  0  0
   -4.5953    0.1345   -0.2311 H   0  0  0  0  0  0  0  0  0  0  0  0
    0.9436   -0.7801    1.2451 H   0  0  0  0  0  0  0  0  0  0  0  0
   -2.7939   -0.4839    0.0391 C   0  0  0  0  0  0  0  0  0  0  0  0
   -4.0687   -0.7310   -0.1233 O   0  0  0  0  0  0  0  0  0  0  0  0
  1  4  1  0  0  0  0
  1  2  1  0  0  0  0
  3  1  1  0  0  0  0
  5  6  1  0  0  0  0
  5  7  1  0  0  0  0
  8  5  1  0  0  0  0
  9 10  2  0  0  0  0
  9 11  1  0  0  0  0
 12  9  2  0  0  0  0
 13  5  1  0  0  0  0
 14  9  1  0  0  0  0
 15 14  1  0  0  0  0
 18 20  2  0  0  0  0
 19 21  1  0  0  0  0
 20 19  1  0  0  0  0
 20 17  1  0  0  0  0
 22 19  1  0  0  0  0
 23 26  1  0  0  0  0
 24 17  1  0  0  0  0
 25 16  2  0  0  0  0
 25 19  1  0  0  0  0
 26 25  1  0  0  0  0
M  RAD  1  11   2
M  END
$$$$
