1sa_2a_2moa.log
 OpenBabel02281910263D
Gaussian groups/kemi/kmacke/programs/G09D/g09/g09 # opt freq wb97xd/6-31++g(d,p)
 37 32  0  0  0  0  0  0  0  0999 V2000
    2.6296   -1.5950    0.1184 S   0  0  0  0  0  0  0  0  0  0  0  0
    3.7664   -2.4640   -0.0735 O   0  0  0  0  0  0  0  0  0  0  0  0
    1.3189   -2.2656    0.3485 O   0  0  0  0  0  0  0  0  0  0  0  0
    2.8143   -0.5226    1.1514 O   0  0  0  0  0  0  0  0  0  0  0  0
    1.3176   -0.2060    1.8658 H   0  0  0  0  0  0  0  0  0  0  0  0
    2.4664   -0.7917   -1.2749 O   0  0  0  0  0  0  0  0  0  0  0  0
    1.8049   -0.0691   -1.1320 H   0  0  0  0  0  0  0  0  0  0  0  0
   -1.6779   -1.3968    0.8018 O   0  0  0  0  0  0  0  0  0  0  0  0
   -4.8666   -1.7973   -0.0121 O   0  0  0  0  0  0  0  0  0  0  0  0
   -4.2787    0.3486    0.1098 O   0  0  0  0  0  0  0  0  0  0  0  0
   -2.9402   -1.1623   -1.2264 C   0  0  0  0  0  0  0  0  0  0  0  0
   -4.0759   -0.7726   -0.3185 C   0  0  0  0  0  0  0  0  0  0  0  0
   -2.6668   -0.3089   -1.8530 H   0  0  0  0  0  0  0  0  0  0  0  0
   -3.2214   -1.9957   -1.8732 H   0  0  0  0  0  0  0  0  0  0  0  0
    0.0815   -2.1756   -0.6030 H   0  0  0  0  0  0  0  0  0  0  0  0
   -5.5392   -1.4827    0.6097 H   0  0  0  0  0  0  0  0  0  0  0  0
   -1.7150   -1.5454   -0.4114 C   0  0  0  0  0  0  0  0  0  0  0  0
   -0.7512   -2.0110   -1.1546 O   0  0  0  0  0  0  0  0  0  0  0  0
   -1.4075    1.9402    1.4986 O   0  0  0  0  0  0  0  0  0  0  0  0
    1.9924    2.9966   -0.5424 O   0  0  0  0  0  0  0  0  0  0  0  0
    0.7153    1.1460   -0.6313 O   0  0  0  0  0  0  0  0  0  0  0  0
   -0.3296    3.2516   -0.1940 C   0  0  0  0  0  0  0  0  0  0  0  0
    0.8708    2.3609   -0.4786 C   0  0  0  0  0  0  0  0  0  0  0  0
   -0.6303    3.7352   -1.1268 H   0  0  0  0  0  0  0  0  0  0  0  0
   -0.0416    4.0225    0.5230 H   0  0  0  0  0  0  0  0  0  0  0  0
   -3.1349    1.6308   -0.0865 H   0  0  0  0  0  0  0  0  0  0  0  0
    2.8820    2.3531   -0.5975 H   0  0  0  0  0  0  0  0  0  0  0  0
   -1.4533    2.4218    0.3780 C   0  0  0  0  0  0  0  0  0  0  0  0
   -2.4658    2.2633   -0.4506 O   0  0  0  0  0  0  0  0  0  0  0  0
    0.3368   -0.1701    2.2442 N   0  0  0  0  0  0  0  0  0  0  0  0
    0.3356   -0.3988    3.2340 H   0  0  0  0  0  0  0  0  0  0  0  0
   -0.2342   -0.8650    1.7267 H   0  0  0  0  0  0  0  0  0  0  0  0
   -0.1132    0.7440    2.0867 H   0  0  0  0  0  0  0  0  0  0  0  0
    4.0748    1.5546   -0.5155 N   0  0  0  0  0  0  0  0  0  0  0  0
    3.9381    0.9224    0.2801 H   0  0  0  0  0  0  0  0  0  0  0  0
    4.9308    2.0834   -0.3814 H   0  0  0  0  0  0  0  0  0  0  0  0
    4.1877    0.9504   -1.3266 H   0  0  0  0  0  0  0  0  0  0  0  0
  1  3  2  0  0  0  0
  1  4  1  0  0  0  0
  2  1  2  0  0  0  0
  5 30  1  0  0  0  0
  6  7  1  0  0  0  0
  6  1  1  0  0  0  0
  9 16  1  0  0  0  0
 11 17  1  0  0  0  0
 11 12  1  0  0  0  0
 12  9  1  0  0  0  0
 12 10  2  0  0  0  0
 13 11  1  0  0  0  0
 14 11  1  0  0  0  0
 17  8  2  0  0  0  0
 18 15  1  0  0  0  0
 18 17  1  0  0  0  0
 20 23  1  0  0  0  0
 21 23  2  0  0  0  0
 22 28  1  0  0  0  0
 22 25  1  0  0  0  0
 23 22  1  0  0  0  0
 24 22  1  0  0  0  0
 27 20  1  0  0  0  0
 28 19  2  0  0  0  0
 29 26  1  0  0  0  0
 29 28  1  0  0  0  0
 30 31  1  0  0  0  0
 32 30  1  0  0  0  0
 33 30  1  0  0  0  0
 34 36  1  0  0  0  0
 34 35  1  0  0  0  0
 37 34  1  0  0  0  0
M  RAD  1   4   2
M  END
$$$$
