2moa_2a.log
 OpenBabel02281910263D
Gaussian groups/kemi/kmacke/programs/G09D/g09/g09 # opt freq wb97xd/6-31++g(d,p)
 30 26  0  0  0  0  0  0  0  0999 V2000
   -2.2888   -2.1440    1.0954 O   0  0  0  0  0  0  0  0  0  0  0  0
    0.9466   -1.1187   -1.2687 O   0  0  0  0  0  0  0  0  0  0  0  0
    0.1829   -2.4382    0.3696 O   0  0  0  0  0  0  0  0  0  0  0  0
   -1.3967   -1.2149   -0.9681 C   0  0  0  0  0  0  0  0  0  0  0  0
   -0.0044   -1.6403   -0.5491 C   0  0  0  0  0  0  0  0  0  0  0  0
   -1.7018   -1.8808   -1.7857 H   0  0  0  0  0  0  0  0  0  0  0  0
   -1.3850   -0.2056   -1.3787 H   0  0  0  0  0  0  0  0  0  0  0  0
   -1.3600   -2.4864    1.0421 H   0  0  0  0  0  0  0  0  0  0  0  0
    1.8930   -1.4729   -0.9491 H   0  0  0  0  0  0  0  0  0  0  0  0
   -2.4852   -1.3080    0.0956 C   0  0  0  0  0  0  0  0  0  0  0  0
   -3.5157   -0.6729   -0.0154 O   0  0  0  0  0  0  0  0  0  0  0  0
    2.0617    0.3275    1.3721 O   0  0  0  0  0  0  0  0  0  0  0  0
   -0.7513    2.5793   -0.6895 O   0  0  0  0  0  0  0  0  0  0  0  0
   -0.3700    1.0879    0.9322 O   0  0  0  0  0  0  0  0  0  0  0  0
    1.5029    2.1139   -0.1941 C   0  0  0  0  0  0  0  0  0  0  0  0
    0.0308    1.8726    0.0684 C   0  0  0  0  0  0  0  0  0  0  0  0
    1.7540    3.1002    0.2143 H   0  0  0  0  0  0  0  0  0  0  0  0
    1.6799    2.1766   -1.2689 H   0  0  0  0  0  0  0  0  0  0  0  0
    1.0836    0.4503    1.4753 H   0  0  0  0  0  0  0  0  0  0  0  0
   -1.7744    2.4329   -0.4489 H   0  0  0  0  0  0  0  0  0  0  0  0
    2.4885    1.1145    0.3948 C   0  0  0  0  0  0  0  0  0  0  0  0
    3.6304    1.0539   -0.0101 O   0  0  0  0  0  0  0  0  0  0  0  0
   -3.2477    2.2358   -0.1223 N   0  0  0  0  0  0  0  0  0  0  0  0
   -3.4725    1.2371   -0.1865 H   0  0  0  0  0  0  0  0  0  0  0  0
   -3.8913    2.7475   -0.7182 H   0  0  0  0  0  0  0  0  0  0  0  0
   -3.4292    2.5139    0.8380 H   0  0  0  0  0  0  0  0  0  0  0  0
    3.2465   -1.9040   -0.3878 N   0  0  0  0  0  0  0  0  0  0  0  0
    3.7980   -2.5550   -0.9366 H   0  0  0  0  0  0  0  0  0  0  0  0
    3.0305   -2.3364    0.5063 H   0  0  0  0  0  0  0  0  0  0  0  0
    3.8026   -1.0679   -0.2034 H   0  0  0  0  0  0  0  0  0  0  0  0
  2  9  1  0  0  0  0
  2  5  1  0  0  0  0
  4  5  1  0  0  0  0
  4 10  1  0  0  0  0
  5  3  2  0  0  0  0
  6  4  1  0  0  0  0
  7  4  1  0  0  0  0
  8  1  1  0  0  0  0
 10  1  1  0  0  0  0
 11 10  2  0  0  0  0
 12 19  1  0  0  0  0
 13 20  1  0  0  0  0
 13 16  1  0  0  0  0
 15 16  1  0  0  0  0
 15 17  1  0  0  0  0
 15 21  1  0  0  0  0
 16 14  2  0  0  0  0
 18 15  1  0  0  0  0
 21 12  1  0  0  0  0
 22 21  2  0  0  0  0
 23 26  1  0  0  0  0
 24 23  1  0  0  0  0
 25 23  1  0  0  0  0
 27 30  1  0  0  0  0
 27 29  1  0  0  0  0
 28 27  1  0  0  0  0
M  END
$$$$
