2sa_1moa.log
 OpenBabel02281910263D
Gaussian groups/kemi/kmacke/programs/G09D/g09/g09 # opt freq wb97xd/6-31++g(d,p)
 25 22  0  0  0  0  0  0  0  0999 V2000
    0.5343    1.2837   -0.1747 S   0  0  0  0  0  0  0  0  0  0  0  0
    1.7892    1.5992   -0.8336 O   0  0  0  0  0  0  0  0  0  0  0  0
   -0.4795    2.3176   -0.0812 O   0  0  0  0  0  0  0  0  0  0  0  0
    0.8042    0.8169    1.3025 O   0  0  0  0  0  0  0  0  0  0  0  0
   -0.0427    0.0259   -0.8970 O   0  0  0  0  0  0  0  0  0  0  0  0
    1.6019    0.2260    1.3378 H   0  0  0  0  0  0  0  0  0  0  0  0
   -1.0094   -0.1166   -0.6298 H   0  0  0  0  0  0  0  0  0  0  0  0
    4.0506   -0.8267    0.1937 S   0  0  0  0  0  0  0  0  0  0  0  0
    5.3652   -1.2910    0.5279 O   0  0  0  0  0  0  0  0  0  0  0  0
    3.0289   -0.6565    1.2119 O   0  0  0  0  0  0  0  0  0  0  0  0
    3.3721   -1.8246   -0.8623 O   0  0  0  0  0  0  0  0  0  0  0  0
    4.2153    0.5063   -0.6239 O   0  0  0  0  0  0  0  0  0  0  0  0
    4.0445   -2.1477   -1.4807 H   0  0  0  0  0  0  0  0  0  0  0  0
    3.3348    0.9492   -0.7516 H   0  0  0  0  0  0  0  0  0  0  0  0
   -5.1769   -2.1487    0.9003 O   0  0  0  0  0  0  0  0  0  0  0  0
   -3.1155    1.8288    0.3815 O   0  0  0  0  0  0  0  0  0  0  0  0
   -2.5156   -0.2583   -0.2056 O   0  0  0  0  0  0  0  0  0  0  0  0
   -4.7889    0.1871    0.4432 C   0  0  0  0  0  0  0  0  0  0  0  0
   -3.3524    0.5562    0.1644 C   0  0  0  0  0  0  0  0  0  0  0  0
   -5.4338    0.8627   -0.1250 H   0  0  0  0  0  0  0  0  0  0  0  0
   -4.9799    0.3432    1.5074 H   0  0  0  0  0  0  0  0  0  0  0  0
   -5.3937   -2.3637   -1.3856 H   0  0  0  0  0  0  0  0  0  0  0  0
   -2.1659    2.0478    0.2256 H   0  0  0  0  0  0  0  0  0  0  0  0
   -5.0834   -1.2549    0.0973 C   0  0  0  0  0  0  0  0  0  0  0  0
   -5.2458   -1.4210   -1.2243 O   0  0  0  0  0  0  0  0  0  0  0  0
  1  3  2  0  0  0  0
  1  4  1  0  0  0  0
  2  1  2  0  0  0  0
  4  6  1  0  0  0  0
  5  7  1  0  0  0  0
  5  1  1  0  0  0  0
  8  9  2  0  0  0  0
  8 10  2  0  0  0  0
 11  8  1  0  0  0  0
 12  8  1  0  0  0  0
 13 11  1  0  0  0  0
 14 12  1  0  0  0  0
 17 19  2  0  0  0  0
 18 21  1  0  0  0  0
 19 16  1  0  0  0  0
 19 18  1  0  0  0  0
 20 18  1  0  0  0  0
 22 25  1  0  0  0  0
 23 16  1  0  0  0  0
 24 18  1  0  0  0  0
 24 15  2  0  0  0  0
 25 24  1  0  0  0  0
M  END
$$$$
