3moa_1a.log
 OpenBabel02281910263D
Gaussian groups/kemi/kmacke/programs/G09D/g09/g09 # opt freq wb97xd/6-31++g(d,p)
 37 33  0  0  0  0  0  0  0  0999 V2000
   -1.6768    0.7684   -0.3130 O   0  0  0  0  0  0  0  0  0  0  0  0
    1.8161    1.9805   -1.3174 O   0  0  0  0  0  0  0  0  0  0  0  0
    1.2167    1.5034    0.7906 O   0  0  0  0  0  0  0  0  0  0  0  0
   -0.3145    2.7245   -0.6072 C   0  0  0  0  0  0  0  0  0  0  0  0
    0.9708    1.9910   -0.2955 C   0  0  0  0  0  0  0  0  0  0  0  0
   -0.4057    2.8786   -1.6853 H   0  0  0  0  0  0  0  0  0  0  0  0
   -0.2732    3.7045   -0.1254 H   0  0  0  0  0  0  0  0  0  0  0  0
   -3.2649    2.2069    0.7295 H   0  0  0  0  0  0  0  0  0  0  0  0
    2.6533    1.5392   -1.0468 H   0  0  0  0  0  0  0  0  0  0  0  0
   -1.5408    1.9672   -0.1296 C   0  0  0  0  0  0  0  0  0  0  0  0
   -2.4325    2.7406    0.4404 O   0  0  0  0  0  0  0  0  0  0  0  0
   -3.3655   -1.4769    1.0388 O   0  0  0  0  0  0  0  0  0  0  0  0
   -0.2145   -1.6709   -1.6334 O   0  0  0  0  0  0  0  0  0  0  0  0
   -0.8530   -2.0596    0.4774 O   0  0  0  0  0  0  0  0  0  0  0  0
   -2.5297   -1.8505   -1.2289 C   0  0  0  0  0  0  0  0  0  0  0  0
   -1.1154   -1.8482   -0.7137 C   0  0  0  0  0  0  0  0  0  0  0  0
   -2.7835   -2.8881   -1.4824 H   0  0  0  0  0  0  0  0  0  0  0  0
   -2.5940   -1.2617   -2.1420 H   0  0  0  0  0  0  0  0  0  0  0  0
   -2.4276   -1.7359    1.1728 H   0  0  0  0  0  0  0  0  0  0  0  0
    0.6966   -1.5960   -1.2276 H   0  0  0  0  0  0  0  0  0  0  0  0
   -3.5990   -1.3525   -0.2639 C   0  0  0  0  0  0  0  0  0  0  0  0
   -4.6501   -0.9166   -0.6761 O   0  0  0  0  0  0  0  0  0  0  0  0
    4.2621    0.8471   -0.6509 O   0  0  0  0  0  0  0  0  0  0  0  0
    1.4839   -1.4760    1.6210 O   0  0  0  0  0  0  0  0  0  0  0  0
    2.1360   -1.2755   -0.5193 O   0  0  0  0  0  0  0  0  0  0  0  0
    3.5765   -0.4913    1.2429 C   0  0  0  0  0  0  0  0  0  0  0  0
    2.3196   -1.1152    0.6813 C   0  0  0  0  0  0  0  0  0  0  0  0
    4.0688   -1.2008    1.9108 H   0  0  0  0  0  0  0  0  0  0  0  0
    3.2542    0.3786    1.8226 H   0  0  0  0  0  0  0  0  0  0  0  0
    6.2232   -0.3028   -0.5458 H   0  0  0  0  0  0  0  0  0  0  0  0
    0.6220   -1.7623    1.2162 H   0  0  0  0  0  0  0  0  0  0  0  0
    4.5092   -0.0243    0.1571 C   0  0  0  0  0  0  0  0  0  0  0  0
    5.6836   -0.6584    0.1761 O   0  0  0  0  0  0  0  0  0  0  0  0
   -4.5828    1.4226    1.2528 N   0  0  0  0  0  0  0  0  0  0  0  0
   -4.3197    0.7988    2.0109 H   0  0  0  0  0  0  0  0  0  0  0  0
   -4.9407    0.8163    0.5137 H   0  0  0  0  0  0  0  0  0  0  0  0
   -5.3407    2.0129    1.5801 H   0  0  0  0  0  0  0  0  0  0  0  0
  1 10  2  0  0  0  0
  2  9  1  0  0  0  0
  2  5  1  0  0  0  0
  4  5  1  0  0  0  0
  4 10  1  0  0  0  0
  4  7  1  0  0  0  0
  5  3  2  0  0  0  0
  6  4  1  0  0  0  0
 10 11  1  0  0  0  0
 11  8  1  0  0  0  0
 12 19  1  0  0  0  0
 13 20  1  0  0  0  0
 13 16  1  0  0  0  0
 15 16  1  0  0  0  0
 15 21  1  0  0  0  0
 16 14  2  0  0  0  0
 17 15  1  0  0  0  0
 18 15  1  0  0  0  0
 21 12  1  0  0  0  0
 22 21  2  0  0  0  0
 23 32  2  0  0  0  0
 25 27  2  0  0  0  0
 26 29  1  0  0  0  0
 26 28  1  0  0  0  0
 27 26  1  0  0  0  0
 27 24  1  0  0  0  0
 30 33  1  0  0  0  0
 31 24  1  0  0  0  0
 32 33  1  0  0  0  0
 32 26  1  0  0  0  0
 34 37  1  0  0  0  0
 34 35  1  0  0  0  0
 36 34  1  0  0  0  0
M  END
$$$$
