1ma.log
 OpenBabel02271919103D
Gaussian users/kemi/kmacke/programs/G09D/g09/g09 # opt freq 6-31++g(d,p) geom=co
  7  6  0  0  0  0  0  0  0  0999 V2000
   -0.7470   -0.0000   -0.1179 N   0  0  0  0  0  0  0  0  0  0  0  0
    0.7057   -0.0000    0.0175 C   0  0  0  0  0  0  0  0  0  0  0  0
   -1.1558    0.8171    0.3207 H   0  0  0  0  0  0  0  0  0  0  0  0
    1.1141   -0.8797   -0.4878 H   0  0  0  0  0  0  0  0  0  0  0  0
    1.0782   -0.0006    1.0537 H   0  0  0  0  0  0  0  0  0  0  0  0
    1.1138    0.8804   -0.4867 H   0  0  0  0  0  0  0  0  0  0  0  0
   -1.1558   -0.8171    0.3206 H   0  0  0  0  0  0  0  0  0  0  0  0
  1  2  1  0  0  0  0
  1  7  1  0  0  0  0
  1  3  1  0  0  0  0
  2  5  1  0  0  0  0
  4  2  1  0  0  0  0
  6  2  1  0  0  0  0
M  END
$$$$
