1sa_4ma.log
 OpenBabel02271919103D
Gaussian users/kemi/kmacke/programs/G09D/g09/g09 # opt freq wb97xd/6-31++g(d,p) 
 35 30  0  0  0  0  0  0  0  0999 V2000
   -0.8627   -0.4530   -0.6337 S   0  0  0  0  0  0  0  0  0  0  0  0
    0.3470   -0.2714   -1.4598 O   0  0  0  0  0  0  0  0  0  0  0  0
   -0.5155   -0.9042    0.7487 O   0  0  0  0  0  0  0  0  0  0  0  0
   -1.9466   -1.2318   -1.2315 O   0  0  0  0  0  0  0  0  0  0  0  0
   -1.4163    1.0599   -0.4561 O   0  0  0  0  0  0  0  0  0  0  0  0
    1.9806    0.1479    1.1140 N   0  0  0  0  0  0  0  0  0  0  0  0
    2.5000   -0.5206    0.4867 H   0  0  0  0  0  0  0  0  0  0  0  0
    1.8673    1.0612    0.5932 H   0  0  0  0  0  0  0  0  0  0  0  0
    1.0134   -0.2530    1.1624 H   0  0  0  0  0  0  0  0  0  0  0  0
    1.3214    2.3786   -0.4917 N   0  0  0  0  0  0  0  0  0  0  0  0
    0.3278    2.4447   -0.2745 H   0  0  0  0  0  0  0  0  0  0  0  0
    1.3351    1.8377   -1.3545 H   0  0  0  0  0  0  0  0  0  0  0  0
    2.7397   -1.8335   -0.7259 N   0  0  0  0  0  0  0  0  0  0  0  0
    2.0458   -1.4230   -1.3541 H   0  0  0  0  0  0  0  0  0  0  0  0
   -3.9362    0.4570    0.2252 N   0  0  0  0  0  0  0  0  0  0  0  0
   -3.9486   -0.2797   -0.4782 H   0  0  0  0  0  0  0  0  0  0  0  0
   -2.3879    0.9966   -0.1739 H   0  0  0  0  0  0  0  0  0  0  0  0
    2.6048    0.3114    2.4337 C   0  0  0  0  0  0  0  0  0  0  0  0
    2.6970   -0.6603    2.9210 H   0  0  0  0  0  0  0  0  0  0  0  0
    3.5963    0.7528    2.3210 H   0  0  0  0  0  0  0  0  0  0  0  0
    1.9887    0.9648    3.0530 H   0  0  0  0  0  0  0  0  0  0  0  0
    1.9201    3.7003   -0.6718 C   0  0  0  0  0  0  0  0  0  0  0  0
    1.8573    4.2597    0.2658 H   0  0  0  0  0  0  0  0  0  0  0  0
    2.9794    3.5910   -0.9210 H   0  0  0  0  0  0  0  0  0  0  0  0
    1.4434    4.2985   -1.4594 H   0  0  0  0  0  0  0  0  0  0  0  0
    2.1900   -3.0688   -0.1536 C   0  0  0  0  0  0  0  0  0  0  0  0
    2.8903   -3.4789    0.5804 H   0  0  0  0  0  0  0  0  0  0  0  0
    1.2523   -2.8295    0.3562 H   0  0  0  0  0  0  0  0  0  0  0  0
    1.9777   -3.8420   -0.9021 H   0  0  0  0  0  0  0  0  0  0  0  0
    3.5798   -2.0249   -1.2609 H   0  0  0  0  0  0  0  0  0  0  0  0
   -3.9233   -0.1318    1.5694 C   0  0  0  0  0  0  0  0  0  0  0  0
   -3.0273   -0.7496    1.6665 H   0  0  0  0  0  0  0  0  0  0  0  0
   -3.8650    0.6674    2.3130 H   0  0  0  0  0  0  0  0  0  0  0  0
   -4.8047   -0.7481    1.7860 H   0  0  0  0  0  0  0  0  0  0  0  0
   -4.7504    1.0449    0.0840 H   0  0  0  0  0  0  0  0  0  0  0  0
  1  5  1  0  0  0  0
  1  3  1  0  0  0  0
  2  1  2  0  0  0  0
  4  1  2  0  0  0  0
  5 17  1  0  0  0  0
  6  9  1  0  0  0  0
  6 18  1  0  0  0  0
  7  6  1  0  0  0  0
  8  6  1  0  0  0  0
 10 11  1  0  0  0  0
 12 10  1  0  0  0  0
 13 26  1  0  0  0  0
 14 13  1  0  0  0  0
 15 31  1  0  0  0  0
 16 15  1  0  0  0  0
 18 19  1  0  0  0  0
 18 21  1  0  0  0  0
 20 18  1  0  0  0  0
 22 10  1  0  0  0  0
 22 23  1  0  0  0  0
 24 22  1  0  0  0  0
 25 22  1  0  0  0  0
 26 28  1  0  0  0  0
 26 27  1  0  0  0  0
 29 26  1  0  0  0  0
 30 13  1  0  0  0  0
 31 32  1  0  0  0  0
 31 34  1  0  0  0  0
 31 33  1  0  0  0  0
 35 15  1  0  0  0  0
M  RAD  1   3   2
M  END
$$$$
