2sa_1ma.log
 OpenBabel02271919103D
Gaussian users/kemi/kmacke/programs/G09D/g09/g09 # opt freq wb97xd/6-31++g(d,p) 
 21 18  0  0  0  0  0  0  0  0999 V2000
    1.7355   -0.7652   -0.0578 S   0  0  0  0  0  0  0  0  0  0  0  0
    2.3875    0.4041   -0.6609 O   0  0  0  0  0  0  0  0  0  0  0  0
    1.0168   -0.4018    1.1946 O   0  0  0  0  0  0  0  0  0  0  0  0
    2.9703   -1.7081    0.3603 O   0  0  0  0  0  0  0  0  0  0  0  0
    0.8982   -1.5774   -0.9578 O   0  0  0  0  0  0  0  0  0  0  0  0
   -0.0982    1.8656    0.2121 H   0  0  0  0  0  0  0  0  0  0  0  0
    2.6420   -2.6090    0.4904 H   0  0  0  0  0  0  0  0  0  0  0  0
   -2.1667   -0.2309   -0.0160 S   0  0  0  0  0  0  0  0  0  0  0  0
   -1.5826   -0.7931    1.3387 O   0  0  0  0  0  0  0  0  0  0  0  0
   -3.5950   -0.2315    0.0726 O   0  0  0  0  0  0  0  0  0  0  0  0
   -1.7449   -1.2962   -1.0945 O   0  0  0  0  0  0  0  0  0  0  0  0
   -1.4691    1.0263   -0.3170 O   0  0  0  0  0  0  0  0  0  0  0  0
   -0.5853   -0.7028    1.3537 H   0  0  0  0  0  0  0  0  0  0  0  0
   -0.7524   -1.3908   -1.1364 H   0  0  0  0  0  0  0  0  0  0  0  0
    0.7947    2.3869    0.3504 N   0  0  0  0  0  0  0  0  0  0  0  0
    0.9769    2.4233    1.3520 H   0  0  0  0  0  0  0  0  0  0  0  0
    1.5302    1.7739   -0.0716 H   0  0  0  0  0  0  0  0  0  0  0  0
    0.7359    3.7265   -0.2763 C   0  0  0  0  0  0  0  0  0  0  0  0
   -0.0694    4.3037    0.1765 H   0  0  0  0  0  0  0  0  0  0  0  0
    1.6895    4.2351   -0.1388 H   0  0  0  0  0  0  0  0  0  0  0  0
    0.5377    3.5950   -1.3391 H   0  0  0  0  0  0  0  0  0  0  0  0
  1  4  1  0  0  0  0
  1  3  1  0  0  0  0
  2  1  2  0  0  0  0
  4  7  1  0  0  0  0
  5  1  2  0  0  0  0
  6 15  1  0  0  0  0
  8 10  2  0  0  0  0
  8  9  1  0  0  0  0
  9 13  1  0  0  0  0
 11  8  1  0  0  0  0
 12  8  2  0  0  0  0
 14 11  1  0  0  0  0
 15 16  1  0  0  0  0
 17 15  1  0  0  0  0
 18 20  1  0  0  0  0
 18 19  1  0  0  0  0
 18 15  1  0  0  0  0
 21 18  1  0  0  0  0
M  RAD  1   3   2
M  END
$$$$
