4ma.log
 OpenBabel02271919103D
Gaussian users/kemi/kmacke/programs/G09D/g09/g09 # opt freq wb97xd/6-31++g(d,p) 
 28 24  0  0  0  0  0  0  0  0999 V2000
    2.1966   -0.0633   -0.8957 N   0  0  0  0  0  0  0  0  0  0  0  0
   -0.0575   -2.0848   -0.4798 N   0  0  0  0  0  0  0  0  0  0  0  0
    0.7507   -1.5332   -0.7905 H   0  0  0  0  0  0  0  0  0  0  0  0
    0.0079   -3.0027   -0.9064 H   0  0  0  0  0  0  0  0  0  0  0  0
    1.5462    0.7311   -0.9149 H   0  0  0  0  0  0  0  0  0  0  0  0
    2.7956    0.0127   -1.7108 H   0  0  0  0  0  0  0  0  0  0  0  0
    0.0573    2.0856   -0.4793 N   0  0  0  0  0  0  0  0  0  0  0  0
   -0.7509    1.5343   -0.7905 H   0  0  0  0  0  0  0  0  0  0  0  0
   -0.0084    3.0040   -0.9047 H   0  0  0  0  0  0  0  0  0  0  0  0
   -2.1969    0.0639   -0.8957 N   0  0  0  0  0  0  0  0  0  0  0  0
   -2.7961   -0.0121   -1.7107 H   0  0  0  0  0  0  0  0  0  0  0  0
   -1.5461   -0.7302   -0.9152 H   0  0  0  0  0  0  0  0  0  0  0  0
   -2.9934    0.0225    0.3278 C   0  0  0  0  0  0  0  0  0  0  0  0
   -2.3317    0.1547    1.1898 H   0  0  0  0  0  0  0  0  0  0  0  0
   -3.7095    0.8501    0.3383 H   0  0  0  0  0  0  0  0  0  0  0  0
   -3.5515   -0.9142    0.4770 H   0  0  0  0  0  0  0  0  0  0  0  0
   -0.0374   -2.1956    0.9759 C   0  0  0  0  0  0  0  0  0  0  0  0
   -0.1204   -1.1934    1.4094 H   0  0  0  0  0  0  0  0  0  0  0  0
   -0.9027   -2.7696    1.3225 H   0  0  0  0  0  0  0  0  0  0  0  0
    0.8707   -2.6610    1.3879 H   0  0  0  0  0  0  0  0  0  0  0  0
    2.9936   -0.0224    0.3276 C   0  0  0  0  0  0  0  0  0  0  0  0
    2.3322   -0.1548    1.1898 H   0  0  0  0  0  0  0  0  0  0  0  0
    3.7096   -0.8501    0.3375 H   0  0  0  0  0  0  0  0  0  0  0  0
    3.5518    0.9142    0.4768 H   0  0  0  0  0  0  0  0  0  0  0  0
    0.0376    2.1943    0.9765 C   0  0  0  0  0  0  0  0  0  0  0  0
    0.1205    1.1913    1.4085 H   0  0  0  0  0  0  0  0  0  0  0  0
    0.9032    2.7675    1.3237 H   0  0  0  0  0  0  0  0  0  0  0  0
   -0.8703    2.6592    1.3895 H   0  0  0  0  0  0  0  0  0  0  0  0
  1 21  1  0  0  0  0
  2 17  1  0  0  0  0
  3  2  1  0  0  0  0
  4  2  1  0  0  0  0
  5  1  1  0  0  0  0
  6  1  1  0  0  0  0
  7 25  1  0  0  0  0
  8  7  1  0  0  0  0
  9  7  1  0  0  0  0
 10 13  1  0  0  0  0
 11 10  1  0  0  0  0
 12 10  1  0  0  0  0
 13 15  1  0  0  0  0
 13 16  1  0  0  0  0
 13 14  1  0  0  0  0
 17 19  1  0  0  0  0
 17 20  1  0  0  0  0
 17 18  1  0  0  0  0
 21 23  1  0  0  0  0
 21 24  1  0  0  0  0
 21 22  1  0  0  0  0
 25 27  1  0  0  0  0
 25 28  1  0  0  0  0
 25 26  1  0  0  0  0
M  END
$$$$
