55
4sa1ma2dma-22
S        3.29814600       0.07670900       0.10511700
O        4.88007000       0.02405400       0.42130300
O        2.70718000      -0.55919200       1.28601900
O        3.11447600      -0.72298000      -1.13917800
O        2.97409200       1.49998200      -0.09896900
H        1.91078400      -0.18122800      -2.25890100
H        5.34646000       0.55128600      -0.24290800
S       -0.05412300       3.47513300       0.48890400
O        1.13775000       2.74029400       1.24978600
O       -1.23632500       2.64222600       0.70220800
O        0.37592900       3.40314700      -1.01465100
O       -0.08321700       4.84769600       0.90927400
H       -0.02900600       2.59723000      -1.47716500
H        1.82337300       2.31196300       0.65141000
S       -2.14555300      -2.29749400       1.00015300
O       -0.72111400      -2.62735800       1.27071800
O       -3.11638100      -3.10148000       1.70521000
O       -2.33259900      -0.81126000       1.15717900
O       -2.40729100      -2.59333900      -0.55734900
H       -1.86222400      -2.01053700      -1.14142200
H       -0.76426400      -0.12926700       1.67249200
S       -0.17496200       0.03839000      -1.87710700
O        0.30229600      -0.13949100      -0.50017300
O       -0.77959800       1.37908300      -2.11478400
O        1.10547100      -0.04205600      -2.82015300
O       -1.08489800      -1.03728000      -2.32188700
N        0.08103400       0.15401100       2.20498200
H        0.20260500       1.16489800       2.09109600
H        0.90013300      -0.27177600       1.74875800
C       -0.02800800      -0.25942500       3.61832400
H       -0.88596400       0.23725400       4.07021600
H       -0.17404000      -1.33889300       3.64506800
H        0.88568400       0.01318800       4.14595300
C       -4.15040600       1.91073400       0.24314600
N       -3.28114900       1.03443500      -0.57499800
C       -3.96212300       0.43186300      -1.74554800
H       -2.44546700       1.54845100      -0.88703300
H       -4.97623300       1.31412700       0.63221600
H       -3.55657200       2.32124100       1.05729400
H       -4.53208400       2.72052800      -0.38016900
H       -4.76074000      -0.21864400      -1.38734100
H       -4.37266400       1.22857600      -2.36725400
H       -3.23259100      -0.14598700      -2.31175500
H       -2.91318100       0.27160400       0.04459600
C        0.92225200      -3.64915200      -1.54206400
N        1.41967800      -2.91929200      -0.35320800
C        2.24433600      -3.74098700       0.56048800
H        1.96724700      -2.09513500      -0.64986000
H        0.28385800      -4.46716400      -1.20627900
H        0.34227700      -2.96182300      -2.15859600
H        1.77200700      -4.03602300      -2.10620700
H        1.62728500      -4.54744900       0.95764400
H        3.09489900      -4.14586600       0.01018900
H        2.59623200      -3.09965200       1.36789200
H        0.59609200      -2.57335200       0.18705800
55
4sa1ma2dma-10
S       -3.12801600      -1.99404300      -0.24598900
O       -3.52033000      -0.96087400       0.71066300
O       -4.14547000      -2.74092200      -0.93171100
O       -2.14670500      -1.31944200      -1.29940800
O       -2.16773200      -3.02382100       0.43321400
H       -1.48555400      -2.58825200       1.04213000
H       -2.28565200      -0.32213100      -1.35634000
S        3.90235100      -0.66808000      -0.10459600
O        3.36149900      -0.50463700      -1.47087900
O        4.12525000       0.62629500       0.57001100
O        3.15767100      -1.65123700       0.69973700
O        5.35449800      -1.35665100      -0.25553300
H        5.94208200      -0.73981500      -0.71346000
S       -1.23140400       2.12856300      -1.50324000
O       -0.02538800       1.45882200      -1.99701300
O       -2.42318400       1.24191200      -1.46031200
O       -1.04173600       2.89586400      -0.25951900
O       -1.60830800       3.29254500      -2.56609300
H       -1.86352600       2.87872000      -3.40214600
S        0.06617000      -0.61573700       1.99164500
O       -0.31311600      -2.04381900       1.93514300
O        0.04318800      -0.00189500       0.63266000
O       -0.67058300       0.18783800       2.97893400
O        1.56488800      -0.54279200       2.51272000
H        2.17611300      -1.04095900       1.90441000
C       -3.76052900       2.21542900       2.31567300
N       -2.65470600       1.52656000       1.62203300
H       -2.13082200       2.14808700       0.98235800
H       -1.96120900       1.10756800       2.27545100
H       -4.44943200       2.62165700       1.57560700
H       -4.28245900       1.49866300       2.94882100
H       -3.35713300       3.02250800       2.92689100
H       -3.00334400       0.73123000       1.06298500
C        0.35544600      -1.45253100      -3.11177100
N        0.78962800      -1.53911500      -1.69969900
C        0.80860900      -2.92236100      -1.16617100
H        1.74289100      -1.13203800      -1.61656800
H       -0.64383900      -1.87830700      -3.19787600
H        0.34158200      -0.40289100      -3.40001200
H        1.06322000      -2.01089000      -3.72615900
H       -0.19744100      -3.33671500      -1.22759300
H        1.50656300      -3.51416900      -1.75973200
H        1.14143100      -2.89072500      -0.13021700
H        0.19367400      -0.95518400      -1.09390600
C        2.20546800       3.12623800      -0.59771900
N        1.85688500       2.20515000       0.50752200
C        1.49974000       2.88122800       1.77474100
H        1.07311400       1.58901400       0.23583800
H        3.08239300       3.70414100      -0.30235900
H        2.42527200       2.53045500      -1.48197800
H        1.35625400       3.78046900      -0.79155400
H        2.34967900       3.47880100       2.10715200
H        0.63294800       3.51636600       1.59229500
H        1.26436000       2.12188700       2.52069100
H        2.67264600       1.57757500       0.66174600
55
4sa1ma2dma-13
S        2.91384200      -2.22389100       0.06199700
O        3.58334400      -1.21005200      -0.75069600
O        3.52049000      -3.50849100       0.26129400
O        2.63038300      -1.61589000       1.49439200
O        1.45663300      -2.43293600      -0.50955200
H        1.19195200      -1.72942200      -1.22505200
H        2.43278300      -0.63294500       1.41051000
S       -3.79262400      -1.16122200      -0.26741800
O       -3.88806400       0.29422800      -0.04857600
O       -3.26364500      -1.50226100      -1.60905100
O       -3.18729700      -1.90068100       0.84635000
O       -5.31311600      -1.72494700      -0.26676500
H       -5.72319500      -1.47181200      -1.10475900
S       -0.29041400       0.26083400      -1.74413300
O       -0.75528800      -0.02195600      -0.37606000
O        0.17225100       1.64849500      -1.94985000
O        0.75778700      -0.71274600      -2.18329900
O       -1.53166900       0.10663200      -2.70535300
H       -2.19322900      -0.54579800      -2.31461000
S        1.07928700       1.60521500       1.91104500
O        0.48800200       2.76901000       1.23826800
O        0.09709600       0.74717600       2.59492300
O        2.04569100       0.86473900       1.06961900
O        2.05868200       2.19195600       3.06654900
H        1.52113000       2.65465800       3.72378500
C       -0.36541900      -2.84066700       2.70210900
N       -0.55224700      -1.86209300       1.61153200
H       -1.53391100      -1.84760800       1.26162300
H       -0.32251000      -0.90183100       1.91547800
H       -0.63976100      -3.83141200       2.34125700
H        0.67971100      -2.83269200       3.01048300
H       -1.00760800      -2.56501300       3.53790300
H        0.05641500      -2.07168100       0.81256700
C        3.73436200       2.45783100      -1.06971700
N        2.93246100       1.37724100      -1.68177500
C        3.29577900       1.05680300      -3.08158400
H        3.03189400       0.51241100      -1.12552000
H        3.58759800       3.37573500      -1.64038000
H        3.39994400       2.59064700      -0.04246800
H        4.78679600       2.17132000      -1.08618100
H        3.16541600       1.94903100      -3.69525100
H        4.33317700       0.72189000      -3.11053600
H        2.63285600       0.26282100      -3.42334800
H        1.91920300       1.61630400      -1.65546300
C       -2.59892900       3.18839900      -0.79210400
N       -2.15183900       2.35848100       0.34761000
C       -2.75440800       2.72125900       1.64767100
H       -2.40895700       1.37561600       0.14743400
H       -2.36626400       4.23396800      -0.58446600
H       -2.06698000       2.85746700      -1.68391100
H       -3.67294900       3.05190700      -0.92024100
H       -2.51893500       3.76222900       1.87316000
H       -3.83226100       2.57018700       1.58728900
H       -2.32799500       2.06983700       2.41053200
H       -1.12292700       2.40386100       0.43895400
