1a_4w.log
 OpenBabel02281909513D
Gaussian kemi/andersx/programs/g09/g09 # opt freq 6-31++g(d,p) wb97xd
 16 11  0  0  0  0  0  0  0  0999 V2000
   -2.1722    1.0660    0.0213 N   0  0  0  0  0  0  0  0  0  0  0  0
   -2.6908    1.2910    0.8646 H   0  0  0  0  0  0  0  0  0  0  0  0
   -2.6777    1.4743   -0.7585 H   0  0  0  0  0  0  0  0  0  0  0  0
   -1.2642    1.5413    0.0769 H   0  0  0  0  0  0  0  0  0  0  0  0
    2.3339    0.2798   -0.1481 O   0  0  0  0  0  0  0  0  0  0  0  0
    1.8848   -0.5862   -0.0134 H   0  0  0  0  0  0  0  0  0  0  0  0
    2.8406    0.1951   -0.9588 H   0  0  0  0  0  0  0  0  0  0  0  0
    1.0117   -2.0562    0.1695 O   0  0  0  0  0  0  0  0  0  0  0  0
    1.1286   -2.5372    0.9917 H   0  0  0  0  0  0  0  0  0  0  0  0
    0.0399   -1.9225    0.0624 H   0  0  0  0  0  0  0  0  0  0  0  0
   -1.6300   -1.6252   -0.0856 O   0  0  0  0  0  0  0  0  0  0  0  0
   -2.0755   -2.0123   -0.8423 H   0  0  0  0  0  0  0  0  0  0  0  0
   -1.8641   -0.6549   -0.0749 H   0  0  0  0  0  0  0  0  0  0  0  0
    0.5130    2.3049    0.0470 O   0  0  0  0  0  0  0  0  0  0  0  0
    1.1873    1.5977   -0.0462 H   0  0  0  0  0  0  0  0  0  0  0  0
    0.8687    2.9251    0.6866 H   0  0  0  0  0  0  0  0  0  0  0  0
  1  4  1  0  0  0  0
  1  2  1  0  0  0  0
  3  1  1  0  0  0  0
  5  6  1  0  0  0  0
  7  5  1  0  0  0  0
  8  9  1  0  0  0  0
 10  8  1  0  0  0  0
 11 13  1  0  0  0  0
 12 11  1  0  0  0  0
 14 16  1  0  0  0  0
 15 14  1  0  0  0  0
M  END
$$$$
