1w_tight.log
 OpenBabel02281909513D
Gaussian opt/gaussian/g09/g09 # opt=tight freq wb97xd/6-31++g(d,p) geom=connecti
  3  2  0  0  0  0  0  0  0  0999 V2000
    0.0000   -0.7665   -0.4628 H   0  0  0  0  0  0  0  0  0  0  0  0
    0.0000    0.0000    0.1157 O   0  0  0  0  0  0  0  0  0  0  0  0
    0.0000    0.7665   -0.4628 H   0  0  0  0  0  0  0  0  0  0  0  0
  1  2  1  0  0  0  0
  3  2  1  0  0  0  0
M  END
$$$$
