2sa_2a_2w.log
 OpenBabel02281909513D
Gaussian kemi/andersx/programs/g09/g09 # opt freq 6-31++g(d,p) wb97xd
 28 22  0  0  0  0  0  0  0  0999 V2000
   -0.9541   -2.2960    1.0879 N   0  0  0  0  0  0  0  0  0  0  0  0
   -3.3008   -2.4245   -0.3385 O   0  0  0  0  0  0  0  0  0  0  0  0
   -1.1911    0.4442    1.2035 O   0  0  0  0  0  0  0  0  0  0  0  0
   -1.8884    0.7881   -0.0913 S   0  0  0  0  0  0  0  0  0  0  0  0
   -1.6392    2.1807   -0.4651 O   0  0  0  0  0  0  0  0  0  0  0  0
   -3.2782    0.3366   -0.1112 O   0  0  0  0  0  0  0  0  0  0  0  0
   -1.1842   -0.1662   -1.1837 O   0  0  0  0  0  0  0  0  0  0  0  0
    1.4800    0.2004   -1.0221 O   0  0  0  0  0  0  0  0  0  0  0  0
    2.1936   -0.7610   -0.1382 S   0  0  0  0  0  0  0  0  0  0  0  0
    3.6463   -0.9847   -0.8064 O   0  0  0  0  0  0  0  0  0  0  0  0
    1.5396   -2.0821   -0.1267 O   0  0  0  0  0  0  0  0  0  0  0  0
    2.5159   -0.2105    1.1809 O   0  0  0  0  0  0  0  0  0  0  0  0
    0.9839    2.0545    1.6895 N   0  0  0  0  0  0  0  0  0  0  0  0
    1.0167    3.0325   -0.8423 O   0  0  0  0  0  0  0  0  0  0  0  0
   -0.9483   -2.8968    1.9066 H   0  0  0  0  0  0  0  0  0  0  0  0
   -1.0583   -1.2920    1.3574 H   0  0  0  0  0  0  0  0  0  0  0  0
   -1.7719   -2.5167    0.4710 H   0  0  0  0  0  0  0  0  0  0  0  0
    1.0692    2.6612    2.4986 H   0  0  0  0  0  0  0  0  0  0  0  0
    1.7122    1.3172    1.6767 H   0  0  0  0  0  0  0  0  0  0  0  0
   -0.2057   -0.0128   -1.1966 H   0  0  0  0  0  0  0  0  0  0  0  0
   -0.0513   -2.3663    0.5782 H   0  0  0  0  0  0  0  0  0  0  0  0
    0.0665    1.5574    1.6693 H   0  0  0  0  0  0  0  0  0  0  0  0
    1.0569    2.5920    0.7843 H   0  0  0  0  0  0  0  0  0  0  0  0
    3.5323   -1.4556   -1.6437 H   0  0  0  0  0  0  0  0  0  0  0  0
   -3.3192   -2.6460   -1.2733 H   0  0  0  0  0  0  0  0  0  0  0  0
   -3.4774   -1.4610   -0.2964 H   0  0  0  0  0  0  0  0  0  0  0  0
    1.4042    2.2322   -1.2279 H   0  0  0  0  0  0  0  0  0  0  0  0
    0.0584    2.9324   -0.9818 H   0  0  0  0  0  0  0  0  0  0  0  0
  1 16  1  0  0  0  0
  1 15  1  0  0  0  0
  2 26  1  0  0  0  0
  4  3  1  0  0  0  0
  5  4  2  0  0  0  0
  6  4  2  0  0  0  0
  7  4  1  0  0  0  0
  8  9  2  0  0  0  0
  9 11  2  0  0  0  0
  9 12  1  0  0  0  0
 10  9  1  0  0  0  0
 13 18  1  0  0  0  0
 17  1  1  0  0  0  0
 19 13  1  0  0  0  0
 20  7  1  0  0  0  0
 21  1  1  0  0  0  0
 22 13  1  0  0  0  0
 23 13  1  0  0  0  0
 24 10  1  0  0  0  0
 25  2  1  0  0  0  0
 27 14  1  0  0  0  0
 28 14  1  0  0  0  0
M  RAD  2   3   2  12   2
M  END
$$$$
