2sa_2a_1w.log
 OpenBabel02281909513D
Gaussian users/kemi/kmacke/programs/G09D/g09/g09 # opt=(maxcycle=10000) freq wb9
 25 20  0  0  0  0  0  0  0  0999 V2000
   -1.8645    0.8371   -0.2114 S   0  0  0  0  0  0  0  0  0  0  0  0
   -1.1691    0.6430    1.1248 O   0  0  0  0  0  0  0  0  0  0  0  0
   -0.7145   -2.0479    1.2570 N   0  0  0  0  0  0  0  0  0  0  0  0
   -0.6688   -2.5716    2.1259 H   0  0  0  0  0  0  0  0  0  0  0  0
   -0.8930   -1.0327    1.4354 H   0  0  0  0  0  0  0  0  0  0  0  0
   -3.2441    0.3584   -0.1845 O   0  0  0  0  0  0  0  0  0  0  0  0
   -1.1360   -0.2172   -1.1881 O   0  0  0  0  0  0  0  0  0  0  0  0
   -1.5145   -2.3750    0.6678 H   0  0  0  0  0  0  0  0  0  0  0  0
    0.7924    2.4742    0.9710 N   0  0  0  0  0  0  0  0  0  0  0  0
    0.8183    3.3123    1.5436 H   0  0  0  0  0  0  0  0  0  0  0  0
    1.6584    1.9010    1.0559 H   0  0  0  0  0  0  0  0  0  0  0  0
    2.3056   -0.3530   -0.1413 S   0  0  0  0  0  0  0  0  0  0  0  0
    1.4659    0.4079   -1.0986 O   0  0  0  0  0  0  0  0  0  0  0  0
    1.7957   -1.7146    0.1026 O   0  0  0  0  0  0  0  0  0  0  0  0
    2.6271    0.4256    1.0630 O   0  0  0  0  0  0  0  0  0  0  0  0
   -0.1756    0.0150   -1.2714 H   0  0  0  0  0  0  0  0  0  0  0  0
   -1.6072    2.1848   -0.7114 O   0  0  0  0  0  0  0  0  0  0  0  0
    0.1949   -2.0925    0.7574 H   0  0  0  0  0  0  0  0  0  0  0  0
   -0.0126    1.8430    1.2291 H   0  0  0  0  0  0  0  0  0  0  0  0
    0.6301    2.7132   -0.0098 H   0  0  0  0  0  0  0  0  0  0  0  0
    3.7475   -0.5423   -0.8458 O   0  0  0  0  0  0  0  0  0  0  0  0
    3.6479   -1.1484   -1.5929 H   0  0  0  0  0  0  0  0  0  0  0  0
   -3.0878   -2.4314   -0.1038 O   0  0  0  0  0  0  0  0  0  0  0  0
   -3.3306   -1.4830   -0.1399 H   0  0  0  0  0  0  0  0  0  0  0  0
   -3.0947   -2.7240   -1.0193 H   0  0  0  0  0  0  0  0  0  0  0  0
  1  6  2  0  0  0  0
  1  2  1  0  0  0  0
  3  5  1  0  0  0  0
  3  4  1  0  0  0  0
  7  1  1  0  0  0  0
  8  3  1  0  0  0  0
  9 11  1  0  0  0  0
  9 19  1  0  0  0  0
  9 10  1  0  0  0  0
 12 14  2  0  0  0  0
 12 15  1  0  0  0  0
 13 12  2  0  0  0  0
 16  7  1  0  0  0  0
 17  1  2  0  0  0  0
 18  3  1  0  0  0  0
 20  9  1  0  0  0  0
 21 12  1  0  0  0  0
 22 21  1  0  0  0  0
 24 23  1  0  0  0  0
 25 23  1  0  0  0  0
M  RAD  2   2   2  15   2
M  END
$$$$
