36
2sa1dma1eda-01
S       -0.49185400      -1.77455600       0.23859100
O       -1.63332200      -2.66537000       0.18588400
O       -0.44738500      -1.08175900      -1.22037900
O       -0.68719800      -0.61765900       1.18671600
O        0.82874100      -2.39809600       0.45770900
H        2.29776800      -1.54894500       0.27098600
S        1.15425500       2.01967600      -0.08289800
O        2.28697700       2.91839500      -0.05943600
O       -0.18111400       2.62460900      -0.23613200
O        1.32875600       0.87652900      -1.05988200
O        1.18514000       1.28634000       1.36082400
H        0.19496500      -0.31867300      -1.21132000
H        0.49994300       0.56796100       1.37974900
N        3.07766500      -0.96911700      -0.11420200
C        3.76379600      -1.74479400      -1.16760400
C        3.95516000      -0.46964100       0.96711000
H        2.56695600      -0.16422100      -0.54891000
H        4.24895500      -2.61264700      -0.71877000
H        3.02020500      -2.07659000      -1.89224600
H        4.50527600      -1.11181300      -1.65691400
H        4.40835700      -1.31739700       1.48298800
H        4.72855700       0.16569000       0.53339600
H        3.34624500       0.11988800       1.65238700
H       -3.62076500       1.53048300      -1.46588200
H       -2.41776700       0.21781900      -1.58997500
H       -4.74959500      -0.70119300      -1.36562300
H       -3.69592700      -1.18274100      -0.03750000
H       -5.85635800       0.78336000       0.09573600
H       -5.44537800      -0.38163900       1.16721700
H       -1.75619500       1.93182800       0.03659400
H       -3.18613100       1.54286000       0.91186500
C       -3.16480800       0.68336200      -0.94640300
C       -4.21024600      -0.32688600      -0.48704100
N       -2.47303800       1.21072300       0.25665500
N       -5.07160400       0.30013200       0.51866800
H       -1.92685100       0.44571100       0.71848100
36
2sa1dma1eda-02
S        0.66637800      -1.64235100       0.25049500
O        0.77704700      -0.44828900       1.16397600
O        0.55958500      -0.99249000      -1.22309000
O        1.88395100      -2.43416500       0.20530300
O       -0.58717300      -2.37718600       0.50020100
H       -2.52350200      -0.32657100      -0.52263400
S       -1.30908700       1.97516700      -0.14903300
O       -2.51698500       2.77146000      -0.15094700
O       -0.02831000       2.67560800      -0.32207300
O       -1.28530500       1.28461600       1.31899000
O       -1.39195000       0.78565200      -1.08705600
H       -0.52774300       0.64909900       1.36605500
H       -0.16243600      -0.30149200      -1.23392300
N       -2.97151400      -1.15644900      -0.06195800
C       -3.58770600      -2.01709900      -1.09229900
C       -3.89164000      -0.69455600       1.00060500
H       -2.15077200      -1.65854200       0.34086100
H       -4.37449200      -1.46058900      -1.60344300
H       -2.81641200      -2.31067300      -1.80428100
H       -4.00616500      -2.90629200      -0.61874400
H       -4.70712100      -0.13201600       0.54425400
H       -4.28439000      -1.55915400       1.53774000
H       -3.33314400      -0.04223400       1.67158300
H        4.27009900       2.11584900      -0.35091200
H        3.61263800       1.95186500       1.29795900
H        5.38113100       0.18024700       0.70994800
H        3.82561800      -0.48555800       1.21550200
H        5.04064400      -0.81237400      -1.31977200
H        3.63732800      -1.47978700      -0.74575000
H        1.77051100       2.12501800      -0.39713200
H        2.45047000       0.75455700      -1.11930300
C        3.70218500       1.46978700       0.32258600
C        4.33109000       0.07326700       0.42036900
N        2.34854400       1.28663700      -0.24430900
N        4.16517600      -0.61770000      -0.85444500
H        1.77518100       0.67613500       0.38358100
36
2sa1dma1eda-05
S       -1.01080500       1.59773700      -0.53228200
O        0.06585500       2.56782700      -0.82442000
O       -0.71995800       0.89751400       0.76094500
O       -2.37814600       2.07917000      -0.65596800
O       -0.91417500       0.43257600      -1.65048500
H       -0.01433300       0.02549100      -1.62149800
S        1.72312400      -1.74068000      -0.19817200
O        2.16365300      -1.10813200       1.06226600
O        0.65369300      -2.73556500      -0.01202400
O        1.49359000      -0.75483900      -1.26897100
O        2.99579300      -2.57554800      -0.76612600
H        3.09258100      -3.37362600      -0.22919100
N        2.19373600       1.64980200       0.64780800
C        3.43022700       1.79304200      -0.14696500
C        2.19878900       2.35073200       1.94665700
H        1.38235300       1.99984900       0.08643400
H        4.27019100       1.38394200       0.41629800
H        3.30047400       1.23412800      -1.07366700
H        3.59805600       2.84896300      -0.36399100
H        2.99645400       1.94826900       2.57307600
H        2.35455700       3.41747800       1.77928200
H        1.23022800       2.18781200       2.41906100
H        2.03277900       0.63617400       0.81612600
H       -3.47575500      -2.67903400       1.03612400
H       -2.69953300      -1.72739700       2.32801300
H       -4.90326600      -0.71272700       1.50346000
H       -3.51599300       0.37169900       1.35866200
H       -5.07494400      -0.65277200      -0.77792800
H       -3.85675700       0.47132800      -0.81476100
H       -1.10822000      -2.29022200       0.43864300
H       -2.15650000      -1.41383500      -0.54010000
C       -3.01372000      -1.71981500       1.28222300
C       -3.95971900      -0.55167700       0.97177700
N       -1.82131700      -1.54746000       0.42488800
N       -4.13475200      -0.44481600      -0.47208800
H       -1.32904300      -0.64883800       0.66507300
