1sa_1gca.log
 OpenBabel02281910273D
Gaussian groups/kemi/kmacke/programs/G09D/g09/g09 # opt freq wb97xd/6-31++g(d,p)
 16 14  0  0  0  0  0  0  0  0999 V2000
   -4.0021   -0.9380    0.1647 O   0  0  0  0  0  0  0  0  0  0  0  0
   -1.4026    1.5056   -0.0243 O   0  0  0  0  0  0  0  0  0  0  0  0
   -1.3483   -0.7404   -0.1908 O   0  0  0  0  0  0  0  0  0  0  0  0
   -3.4613    0.3432    0.0411 C   0  0  0  0  0  0  0  0  0  0  0  0
   -1.9554    0.3212   -0.0612 C   0  0  0  0  0  0  0  0  0  0  0  0
   -3.8352    0.8585   -0.8560 H   0  0  0  0  0  0  0  0  0  0  0  0
   -3.7430    0.9499    0.9079 H   0  0  0  0  0  0  0  0  0  0  0  0
   -3.3270   -1.5765   -0.0984 H   0  0  0  0  0  0  0  0  0  0  0  0
   -0.4204    1.4494   -0.1220 H   0  0  0  0  0  0  0  0  0  0  0  0
    2.0219    0.0026   -0.0810 S   0  0  0  0  0  0  0  0  0  0  0  0
    3.3599   -0.1542   -0.5745 O   0  0  0  0  0  0  0  0  0  0  0  0
    1.2671    1.2232   -0.3116 O   0  0  0  0  0  0  0  0  0  0  0  0
    2.0229   -0.1468    1.5200 O   0  0  0  0  0  0  0  0  0  0  0  0
    1.1789   -1.2291   -0.5560 O   0  0  0  0  0  0  0  0  0  0  0  0
    2.6747   -0.8148    1.7797 H   0  0  0  0  0  0  0  0  0  0  0  0
    0.1949   -1.0572   -0.4137 H   0  0  0  0  0  0  0  0  0  0  0  0
  3  5  2  0  0  0  0
  4  1  1  0  0  0  0
  4  7  1  0  0  0  0
  5  2  1  0  0  0  0
  5  4  1  0  0  0  0
  6  4  1  0  0  0  0
  8  1  1  0  0  0  0
  9  2  1  0  0  0  0
 10 13  1  0  0  0  0
 11 10  2  0  0  0  0
 12 10  2  0  0  0  0
 13 15  1  0  0  0  0
 14 16  1  0  0  0  0
 14 10  1  0  0  0  0
M  END
$$$$
