1sa_2gca.log
 OpenBabel02281910273D
Gaussian groups/kemi/kmacke/programs/G09D/g09/g09 # opt freq wb97xd/6-31++g(d,p)
 25 22  0  0  0  0  0  0  0  0999 V2000
   -5.1288   -2.1004   -0.5480 O   0  0  0  0  0  0  0  0  0  0  0  0
   -3.6312    0.8553    0.7938 O   0  0  0  0  0  0  0  0  0  0  0  0
   -2.8176   -0.7409   -0.5729 O   0  0  0  0  0  0  0  0  0  0  0  0
   -5.0599   -0.9372    0.2210 C   0  0  0  0  0  0  0  0  0  0  0  0
   -3.7190   -0.2548    0.1082 C   0  0  0  0  0  0  0  0  0  0  0  0
   -5.8283   -0.2204   -0.0940 H   0  0  0  0  0  0  0  0  0  0  0  0
   -5.2310   -1.1537    1.2840 H   0  0  0  0  0  0  0  0  0  0  0  0
   -4.2606   -2.2523   -0.9433 H   0  0  0  0  0  0  0  0  0  0  0  0
   -2.7343    1.2622    0.7138 H   0  0  0  0  0  0  0  0  0  0  0  0
    0.0000    1.1384    0.0000 S   0  0  0  0  0  0  0  0  0  0  0  0
    1.1430    1.8782   -0.5048 O   0  0  0  0  0  0  0  0  0  0  0  0
   -1.1429    1.8782    0.5049 O   0  0  0  0  0  0  0  0  0  0  0  0
    0.4551    0.1839    1.1557 O   0  0  0  0  0  0  0  0  0  0  0  0
   -0.4552    0.1841   -1.1558 O   0  0  0  0  0  0  0  0  0  0  0  0
    1.3638   -0.2019    0.9486 H   0  0  0  0  0  0  0  0  0  0  0  0
   -1.3639   -0.2018   -0.9487 H   0  0  0  0  0  0  0  0  0  0  0  0
    5.1287   -2.1004    0.5479 O   0  0  0  0  0  0  0  0  0  0  0  0
    3.6313    0.8554   -0.7937 O   0  0  0  0  0  0  0  0  0  0  0  0
    2.8176   -0.7409    0.5728 O   0  0  0  0  0  0  0  0  0  0  0  0
    5.0599   -0.9371   -0.2209 C   0  0  0  0  0  0  0  0  0  0  0  0
    3.7190   -0.2548   -0.1082 C   0  0  0  0  0  0  0  0  0  0  0  0
    5.8282   -0.2204    0.0943 H   0  0  0  0  0  0  0  0  0  0  0  0
    5.2312   -1.1536   -1.2838 H   0  0  0  0  0  0  0  0  0  0  0  0
    4.2605   -2.2523    0.9433 H   0  0  0  0  0  0  0  0  0  0  0  0
    2.7344    1.2622   -0.7137 H   0  0  0  0  0  0  0  0  0  0  0  0
  1  4  1  0  0  0  0
  3  5  2  0  0  0  0
  4  7  1  0  0  0  0
  5  4  1  0  0  0  0
  5  2  1  0  0  0  0
  6  4  1  0  0  0  0
  8  1  1  0  0  0  0
  9  2  1  0  0  0  0
 10 12  2  0  0  0  0
 10 13  1  0  0  0  0
 11 10  2  0  0  0  0
 14 16  1  0  0  0  0
 14 10  1  0  0  0  0
 15 13  1  0  0  0  0
 17 24  1  0  0  0  0
 18 25  1  0  0  0  0
 18 21  1  0  0  0  0
 20 21  1  0  0  0  0
 20 22  1  0  0  0  0
 20 17  1  0  0  0  0
 21 19  2  0  0  0  0
 23 20  1  0  0  0  0
M  END
$$$$
