1sa_3a_2gca.log
 OpenBabel02281910273D
Gaussian groups/kemi/kmacke/programs/G09D/g09/g09 # opt freq wb97xd/6-31++g(d,p)
 37 31  0  0  0  0  0  0  0  0999 V2000
   -2.6913   -0.2539   -0.4437 S   0  0  0  0  0  0  0  0  0  0  0  0
   -4.1044   -0.6057   -0.4308 O   0  0  0  0  0  0  0  0  0  0  0  0
   -1.7718   -1.4229   -0.5574 O   0  0  0  0  0  0  0  0  0  0  0  0
   -2.3422    0.4386    0.9589 O   0  0  0  0  0  0  0  0  0  0  0  0
   -2.3031    0.7799   -1.4450 O   0  0  0  0  0  0  0  0  0  0  0  0
   -3.0652    0.2123    1.6412 H   0  0  0  0  0  0  0  0  0  0  0  0
   -0.8496    0.3286   -2.2371 H   0  0  0  0  0  0  0  0  0  0  0  0
   -4.3988   -0.2235    2.5079 N   0  0  0  0  0  0  0  0  0  0  0  0
   -4.9128    0.5287    2.9537 H   0  0  0  0  0  0  0  0  0  0  0  0
   -4.2878   -0.9764    3.1784 H   0  0  0  0  0  0  0  0  0  0  0  0
   -4.9462   -0.5684    1.7207 H   0  0  0  0  0  0  0  0  0  0  0  0
    3.8105   -1.9420    0.0718 O   0  0  0  0  0  0  0  0  0  0  0  0
    0.3496   -1.6444    0.8393 O   0  0  0  0  0  0  0  0  0  0  0  0
    1.4376   -1.9686   -1.1102 O   0  0  0  0  0  0  0  0  0  0  0  0
    2.6872   -1.9270    0.9178 C   0  0  0  0  0  0  0  0  0  0  0  0
    1.4090   -1.8465    0.1107 C   0  0  0  0  0  0  0  0  0  0  0  0
    2.6511   -2.8331    1.5359 H   0  0  0  0  0  0  0  0  0  0  0  0
    2.7262   -1.0623    1.5900 H   0  0  0  0  0  0  0  0  0  0  0  0
    3.4634   -2.0316   -0.8298 H   0  0  0  0  0  0  0  0  0  0  0  0
   -0.5014   -1.5804    0.2872 H   0  0  0  0  0  0  0  0  0  0  0  0
    0.1393    0.1084   -2.4987 N   0  0  0  0  0  0  0  0  0  0  0  0
    0.7692    0.7435   -1.9580 H   0  0  0  0  0  0  0  0  0  0  0  0
    0.2839    0.2174   -3.4976 H   0  0  0  0  0  0  0  0  0  0  0  0
    0.3711   -0.8497   -2.1930 H   0  0  0  0  0  0  0  0  0  0  0  0
   -0.3187    2.6018   -0.7975 O   0  0  0  0  0  0  0  0  0  0  0  0
    2.4384    1.8822    1.3162 O   0  0  0  0  0  0  0  0  0  0  0  0
    1.9951    1.1573   -0.7501 O   0  0  0  0  0  0  0  0  0  0  0  0
    0.3021    2.4112    0.4418 C   0  0  0  0  0  0  0  0  0  0  0  0
    1.6619    1.7590    0.2676 C   0  0  0  0  0  0  0  0  0  0  0  0
    0.4509    3.3682    0.9552 H   0  0  0  0  0  0  0  0  0  0  0  0
   -0.2873    1.7633    1.1045 H   0  0  0  0  0  0  0  0  0  0  0  0
   -1.1709    2.1357   -0.8275 H   0  0  0  0  0  0  0  0  0  0  0  0
    3.3506    1.4480    1.1379 H   0  0  0  0  0  0  0  0  0  0  0  0
    4.8013    0.7888    0.7667 N   0  0  0  0  0  0  0  0  0  0  0  0
    5.1877    1.3298   -0.0010 H   0  0  0  0  0  0  0  0  0  0  0  0
    4.6386   -0.1611    0.4195 H   0  0  0  0  0  0  0  0  0  0  0  0
    5.5051    0.7447    1.4968 H   0  0  0  0  0  0  0  0  0  0  0  0
  1  2  1  0  0  0  0
  1  4  1  0  0  0  0
  3  1  2  0  0  0  0
  4  6  1  0  0  0  0
  5  1  2  0  0  0  0
  8  9  1  0  0  0  0
  8 10  1  0  0  0  0
 11  8  1  0  0  0  0
 12 15  1  0  0  0  0
 14 16  2  0  0  0  0
 15 17  1  0  0  0  0
 15 18  1  0  0  0  0
 16 13  1  0  0  0  0
 16 15  1  0  0  0  0
 19 12  1  0  0  0  0
 20 13  1  0  0  0  0
 21  7  1  0  0  0  0
 21 24  1  0  0  0  0
 21 22  1  0  0  0  0
 23 21  1  0  0  0  0
 25 28  1  0  0  0  0
 27 29  2  0  0  0  0
 28 30  1  0  0  0  0
 28 31  1  0  0  0  0
 29 28  1  0  0  0  0
 29 26  1  0  0  0  0
 32 25  1  0  0  0  0
 33 26  1  0  0  0  0
 34 37  1  0  0  0  0
 35 34  1  0  0  0  0
 36 34  1  0  0  0  0
M  RAD  1   2   2
M  END
$$$$
