2gca_1a.log
 OpenBabel02281910273D
Gaussian groups/kemi/kmacke/programs/G09D/g09/g09 # opt freq wb97xd/6-31++g(d,p)
 22 19  0  0  0  0  0  0  0  0999 V2000
    3.6018   -1.9056   -0.0607 O   0  0  0  0  0  0  0  0  0  0  0  0
    2.4348    1.4700    0.0263 O   0  0  0  0  0  0  0  0  0  0  0  0
    1.3428   -0.4987    0.0204 O   0  0  0  0  0  0  0  0  0  0  0  0
    3.7232   -0.5125   -0.0514 C   0  0  0  0  0  0  0  0  0  0  0  0
    2.3736    0.1739    0.0039 C   0  0  0  0  0  0  0  0  0  0  0  0
    4.3077   -0.1791    0.8155 H   0  0  0  0  0  0  0  0  0  0  0  0
    4.2417   -0.1592   -0.9520 H   0  0  0  0  0  0  0  0  0  0  0  0
    2.6560   -2.1074   -0.0433 H   0  0  0  0  0  0  0  0  0  0  0  0
    1.4964    1.9342    0.0493 H   0  0  0  0  0  0  0  0  0  0  0  0
   -4.5781   -0.1496   -0.0844 O   0  0  0  0  0  0  0  0  0  0  0  0
   -1.1919   -1.2643    0.1499 O   0  0  0  0  0  0  0  0  0  0  0  0
   -2.0743    0.7831   -0.1694 O   0  0  0  0  0  0  0  0  0  0  0  0
   -3.5472   -1.0821    0.0695 C   0  0  0  0  0  0  0  0  0  0  0  0
   -2.1872   -0.4221    0.0040 C   0  0  0  0  0  0  0  0  0  0  0  0
   -3.6302   -1.5964    1.0353 H   0  0  0  0  0  0  0  0  0  0  0  0
   -3.5912   -1.8478   -0.7155 H   0  0  0  0  0  0  0  0  0  0  0  0
   -4.1629    0.7137   -0.2174 H   0  0  0  0  0  0  0  0  0  0  0  0
   -0.3087   -0.8212    0.0932 H   0  0  0  0  0  0  0  0  0  0  0  0
    0.1520    2.7123    0.0711 N   0  0  0  0  0  0  0  0  0  0  0  0
   -0.6215    2.0505   -0.0454 H   0  0  0  0  0  0  0  0  0  0  0  0
    0.0902    3.3970   -0.6766 H   0  0  0  0  0  0  0  0  0  0  0  0
    0.0045    3.2064    0.9462 H   0  0  0  0  0  0  0  0  0  0  0  0
  1  4  1  0  0  0  0
  1  8  1  0  0  0  0
  2  9  1  0  0  0  0
  4  5  1  0  0  0  0
  4  6  1  0  0  0  0
  5  3  2  0  0  0  0
  5  2  1  0  0  0  0
  7  4  1  0  0  0  0
 10 13  1  0  0  0  0
 12 14  2  0  0  0  0
 13 15  1  0  0  0  0
 14 13  1  0  0  0  0
 14 11  1  0  0  0  0
 16 13  1  0  0  0  0
 17 10  1  0  0  0  0
 18 11  1  0  0  0  0
 19 22  1  0  0  0  0
 20 19  1  0  0  0  0
 21 19  1  0  0  0  0
M  END
$$$$
