2sa_3a_1gca.log
 OpenBabel02281910273D
Gaussian groups/kemi/kmacke/programs/G09D/g09/g09 # opt freq wb97xd/6-31++g(d,p)
 35 29  0  0  0  0  0  0  0  0999 V2000
   -2.3618    1.7533   -0.1669 S   0  0  0  0  0  0  0  0  0  0  0  0
   -1.1746    2.4607    0.3472 O   0  0  0  0  0  0  0  0  0  0  0  0
   -3.0718    2.7726   -1.2048 O   0  0  0  0  0  0  0  0  0  0  0  0
   -2.0491    0.5966   -1.0292 O   0  0  0  0  0  0  0  0  0  0  0  0
   -3.3581    1.4490    0.8757 O   0  0  0  0  0  0  0  0  0  0  0  0
    0.1512    1.7067    1.1937 H   0  0  0  0  0  0  0  0  0  0  0  0
   -3.2730    3.5949   -0.7372 H   0  0  0  0  0  0  0  0  0  0  0  0
    0.1339   -1.8298    0.2090 S   0  0  0  0  0  0  0  0  0  0  0  0
   -0.6817   -2.8204   -0.4829 O   0  0  0  0  0  0  0  0  0  0  0  0
    0.3486   -0.5611   -0.7582 O   0  0  0  0  0  0  0  0  0  0  0  0
   -0.5717   -1.2736    1.4163 O   0  0  0  0  0  0  0  0  0  0  0  0
    1.5173   -2.2141    0.5245 O   0  0  0  0  0  0  0  0  0  0  0  0
   -2.3309   -1.4464    1.3223 H   0  0  0  0  0  0  0  0  0  0  0  0
   -0.5225   -0.1322   -0.9610 H   0  0  0  0  0  0  0  0  0  0  0  0
   -3.3436   -1.3482    1.1027 N   0  0  0  0  0  0  0  0  0  0  0  0
   -3.4951   -1.6987    0.0976 H   0  0  0  0  0  0  0  0  0  0  0  0
   -3.9090   -1.8659    1.7681 H   0  0  0  0  0  0  0  0  0  0  0  0
   -3.5578   -0.3352    1.1317 H   0  0  0  0  0  0  0  0  0  0  0  0
    0.7883    1.1000    1.7492 N   0  0  0  0  0  0  0  0  0  0  0  0
    0.9681    1.5180    2.6573 H   0  0  0  0  0  0  0  0  0  0  0  0
    0.3026    0.1822    1.8492 H   0  0  0  0  0  0  0  0  0  0  0  0
    1.6857    0.9432    1.2458 H   0  0  0  0  0  0  0  0  0  0  0  0
    5.5050    1.9111   -0.4056 O   0  0  0  0  0  0  0  0  0  0  0  0
    3.6702   -1.1470   -0.5022 O   0  0  0  0  0  0  0  0  0  0  0  0
    3.2707    0.8106    0.5474 O   0  0  0  0  0  0  0  0  0  0  0  0
    5.2228    0.6004   -0.8045 C   0  0  0  0  0  0  0  0  0  0  0  0
    3.9427    0.0846   -0.1829 C   0  0  0  0  0  0  0  0  0  0  0  0
    5.1120    0.5341   -1.8949 H   0  0  0  0  0  0  0  0  0  0  0  0
    6.0373   -0.0744   -0.5151 H   0  0  0  0  0  0  0  0  0  0  0  0
    4.7602    2.2084    0.1342 H   0  0  0  0  0  0  0  0  0  0  0  0
    2.8177   -1.4892   -0.1031 H   0  0  0  0  0  0  0  0  0  0  0  0
   -3.3831   -2.0584   -1.5522 N   0  0  0  0  0  0  0  0  0  0  0  0
   -2.4748   -2.5239   -1.5663 H   0  0  0  0  0  0  0  0  0  0  0  0
   -3.2539   -1.1425   -1.9769 H   0  0  0  0  0  0  0  0  0  0  0  0
   -4.0347   -2.5927   -2.1160 H   0  0  0  0  0  0  0  0  0  0  0  0
  1  2  2  0  0  0  0
  1  5  1  0  0  0  0
  3  7  1  0  0  0  0
  3  1  1  0  0  0  0
  4  1  2  0  0  0  0
  6 19  1  0  0  0  0
  8 12  2  0  0  0  0
  8 11  1  0  0  0  0
  9  8  2  0  0  0  0
 10  8  1  0  0  0  0
 14 10  1  0  0  0  0
 15 18  1  0  0  0  0
 15 13  1  0  0  0  0
 15 17  1  0  0  0  0
 16 15  1  0  0  0  0
 19 21  1  0  0  0  0
 19 20  1  0  0  0  0
 22 19  1  0  0  0  0
 23 30  1  0  0  0  0
 24 27  1  0  0  0  0
 24 31  1  0  0  0  0
 26 29  1  0  0  0  0
 26 23  1  0  0  0  0
 26 27  1  0  0  0  0
 27 25  2  0  0  0  0
 28 26  1  0  0  0  0
 33 32  1  0  0  0  0
 34 32  1  0  0  0  0
 35 32  1  0  0  0  0
M  RAD  2   5   2  11   2
M  END
$$$$
