3gca_2a.log
 OpenBabel02281910273D
Gaussian groups/kemi/kmacke/programs/G09D/g09/g09 # opt freq wb97xd/6-31++g(d,p)
 35 30  0  0  0  0  0  0  0  0999 V2000
   -4.6444   -0.0439   -0.0252 O   0  0  0  0  0  0  0  0  0  0  0  0
   -1.5013   -1.3030   -1.1635 O   0  0  0  0  0  0  0  0  0  0  0  0
   -2.2059    0.7946   -0.7548 O   0  0  0  0  0  0  0  0  0  0  0  0
   -3.6768   -1.0226   -0.2737 C   0  0  0  0  0  0  0  0  0  0  0  0
   -2.3827   -0.4147   -0.7636 C   0  0  0  0  0  0  0  0  0  0  0  0
   -3.4363   -1.5870    0.6390 H   0  0  0  0  0  0  0  0  0  0  0  0
   -4.0428   -1.7353   -1.0210 H   0  0  0  0  0  0  0  0  0  0  0  0
   -4.1961    0.8123   -0.0619 H   0  0  0  0  0  0  0  0  0  0  0  0
   -0.6091   -0.8900   -1.3125 H   0  0  0  0  0  0  0  0  0  0  0  0
    3.1221   -1.6455    0.2079 O   0  0  0  0  0  0  0  0  0  0  0  0
    2.2394    1.1978   -1.6622 O   0  0  0  0  0  0  0  0  0  0  0  0
    1.0055   -0.6366   -1.2734 O   0  0  0  0  0  0  0  0  0  0  0  0
    3.3610   -0.7104   -0.8124 C   0  0  0  0  0  0  0  0  0  0  0  0
    2.0773   -0.0322   -1.2814 C   0  0  0  0  0  0  0  0  0  0  0  0
    4.0684    0.0654   -0.5007 H   0  0  0  0  0  0  0  0  0  0  0  0
    3.7959   -1.2463   -1.6621 H   0  0  0  0  0  0  0  0  0  0  0  0
    2.7334   -1.1467    0.9479 H   0  0  0  0  0  0  0  0  0  0  0  0
    1.3241    1.7315   -1.7145 H   0  0  0  0  0  0  0  0  0  0  0  0
    0.6338    2.6876    1.5438 O   0  0  0  0  0  0  0  0  0  0  0  0
   -0.4522   -0.6943    1.7176 O   0  0  0  0  0  0  0  0  0  0  0  0
    1.6119    0.2103    1.6591 O   0  0  0  0  0  0  0  0  0  0  0  0
   -0.2661    1.6583    1.8800 C   0  0  0  0  0  0  0  0  0  0  0  0
    0.3874    0.2973    1.7370 C   0  0  0  0  0  0  0  0  0  0  0  0
   -0.6224    1.7599    2.9147 H   0  0  0  0  0  0  0  0  0  0  0  0
   -1.1341    1.7019    1.2162 H   0  0  0  0  0  0  0  0  0  0  0  0
    1.5232    2.3131    1.6284 H   0  0  0  0  0  0  0  0  0  0  0  0
   -0.0169   -1.6104    1.4261 H   0  0  0  0  0  0  0  0  0  0  0  0
    0.4682   -2.9037    0.7527 N   0  0  0  0  0  0  0  0  0  0  0  0
    0.6470   -3.7178    1.3315 H   0  0  0  0  0  0  0  0  0  0  0  0
    1.3309   -2.6580    0.2591 H   0  0  0  0  0  0  0  0  0  0  0  0
   -0.2275   -3.1498    0.0537 H   0  0  0  0  0  0  0  0  0  0  0  0
    0.0974    2.5918   -1.4650 N   0  0  0  0  0  0  0  0  0  0  0  0
   -0.0726    3.3448   -2.1234 H   0  0  0  0  0  0  0  0  0  0  0  0
    0.2455    2.9940   -0.5366 H   0  0  0  0  0  0  0  0  0  0  0  0
   -0.7411    2.0107   -1.4078 H   0  0  0  0  0  0  0  0  0  0  0  0
  2  5  1  0  0  0  0
  4  1  1  0  0  0  0
  4  6  1  0  0  0  0
  5  3  2  0  0  0  0
  5  4  1  0  0  0  0
  7  4  1  0  0  0  0
  8  1  1  0  0  0  0
  9  2  1  0  0  0  0
 10 17  1  0  0  0  0
 11 14  1  0  0  0  0
 13 15  1  0  0  0  0
 13 10  1  0  0  0  0
 14 12  2  0  0  0  0
 14 13  1  0  0  0  0
 16 13  1  0  0  0  0
 18 11  1  0  0  0  0
 19 26  1  0  0  0  0
 19 22  1  0  0  0  0
 20 23  1  0  0  0  0
 21 23  2  0  0  0  0
 22 24  1  0  0  0  0
 23 22  1  0  0  0  0
 25 22  1  0  0  0  0
 27 20  1  0  0  0  0
 28 29  1  0  0  0  0
 30 28  1  0  0  0  0
 31 28  1  0  0  0  0
 32 35  1  0  0  0  0
 32 34  1  0  0  0  0
 33 32  1  0  0  0  0
M  END
$$$$
