3gca_3a.log
 OpenBabel02281910273D
Gaussian groups/kemi/kmacke/programs/G09D/g09/g09 # opt freq wb97xd/6-31++g(d,p)
 39 33  0  0  0  0  0  0  0  0999 V2000
    4.2517   -0.6823    0.5383 O   0  0  0  0  0  0  0  0  0  0  0  0
    0.9448   -2.0728    0.5609 O   0  0  0  0  0  0  0  0  0  0  0  0
    1.6762   -0.1605    1.4770 O   0  0  0  0  0  0  0  0  0  0  0  0
    3.2430   -1.5997    0.3074 C   0  0  0  0  0  0  0  0  0  0  0  0
    1.8825   -1.1885    0.8484 C   0  0  0  0  0  0  0  0  0  0  0  0
    3.0962   -1.8172   -0.7634 H   0  0  0  0  0  0  0  0  0  0  0  0
    3.5038   -2.5499    0.7874 H   0  0  0  0  0  0  0  0  0  0  0  0
    4.0842    0.0824   -0.0609 H   0  0  0  0  0  0  0  0  0  0  0  0
    0.0176   -1.7285    0.7868 H   0  0  0  0  0  0  0  0  0  0  0  0
   -3.0998   -0.7605   -1.5591 O   0  0  0  0  0  0  0  0  0  0  0  0
   -2.7717   -0.2269    1.9218 O   0  0  0  0  0  0  0  0  0  0  0  0
   -1.4340   -1.3444    0.5102 O   0  0  0  0  0  0  0  0  0  0  0  0
   -3.6196   -0.7857   -0.2416 C   0  0  0  0  0  0  0  0  0  0  0  0
   -2.5195   -0.7855    0.8260 C   0  0  0  0  0  0  0  0  0  0  0  0
   -4.2836    0.0656   -0.0640 H   0  0  0  0  0  0  0  0  0  0  0  0
   -4.2050   -1.7044   -0.1363 H   0  0  0  0  0  0  0  0  0  0  0  0
   -2.6302    0.0978   -1.6495 H   0  0  0  0  0  0  0  0  0  0  0  0
   -1.4762    0.4213    2.4669 H   0  0  0  0  0  0  0  0  0  0  0  0
   -0.6368    2.9669    0.6024 O   0  0  0  0  0  0  0  0  0  0  0  0
    0.5375    0.6008   -1.7861 O   0  0  0  0  0  0  0  0  0  0  0  0
   -1.5068    1.4099   -1.2888 O   0  0  0  0  0  0  0  0  0  0  0  0
    0.3575    2.4168   -0.2465 C   0  0  0  0  0  0  0  0  0  0  0  0
   -0.2600    1.3841   -1.1910 C   0  0  0  0  0  0  0  0  0  0  0  0
    0.8314    3.2060   -0.8454 H   0  0  0  0  0  0  0  0  0  0  0  0
    1.1262    1.9317    0.3628 H   0  0  0  0  0  0  0  0  0  0  0  0
   -1.4721    2.7969    0.1300 H   0  0  0  0  0  0  0  0  0  0  0  0
   -0.1046   -0.7853   -2.0933 H   0  0  0  0  0  0  0  0  0  0  0  0
   -0.5645   -1.7614   -2.1085 N   0  0  0  0  0  0  0  0  0  0  0  0
   -0.5099   -2.1903   -3.0271 H   0  0  0  0  0  0  0  0  0  0  0  0
   -1.5572   -1.6195   -1.8088 H   0  0  0  0  0  0  0  0  0  0  0  0
   -0.0927   -2.3307   -1.4048 H   0  0  0  0  0  0  0  0  0  0  0  0
   -0.5811    1.0036    2.6305 N   0  0  0  0  0  0  0  0  0  0  0  0
   -0.4663    1.2440    3.6102 H   0  0  0  0  0  0  0  0  0  0  0  0
   -0.6545    1.8605    2.0485 H   0  0  0  0  0  0  0  0  0  0  0  0
    0.2414    0.4686    2.2892 H   0  0  0  0  0  0  0  0  0  0  0  0
    3.4788    1.2621   -1.3211 N   0  0  0  0  0  0  0  0  0  0  0  0
    3.4951    2.1948   -0.9210 H   0  0  0  0  0  0  0  0  0  0  0  0
    2.5089    1.0441   -1.5669 H   0  0  0  0  0  0  0  0  0  0  0  0
    4.0232    1.2913   -2.1769 H   0  0  0  0  0  0  0  0  0  0  0  0
  2  9  1  0  0  0  0
  2  5  1  0  0  0  0
  4  1  1  0  0  0  0
  4  7  1  0  0  0  0
  4  5  1  0  0  0  0
  5  3  2  0  0  0  0
  6  4  1  0  0  0  0
  8  1  1  0  0  0  0
 10 13  1  0  0  0  0
 12 14  2  0  0  0  0
 13 16  1  0  0  0  0
 13 15  1  0  0  0  0
 13 14  1  0  0  0  0
 14 11  1  0  0  0  0
 17 10  1  0  0  0  0
 18 32  1  0  0  0  0
 20 23  2  0  0  0  0
 21 23  1  0  0  0  0
 22 25  1  0  0  0  0
 22 19  1  0  0  0  0
 23 22  1  0  0  0  0
 24 22  1  0  0  0  0
 26 19  1  0  0  0  0
 28 27  1  0  0  0  0
 28 30  1  0  0  0  0
 28 31  1  0  0  0  0
 29 28  1  0  0  0  0
 32 33  1  0  0  0  0
 34 32  1  0  0  0  0
 35 32  1  0  0  0  0
 36 37  1  0  0  0  0
 38 36  1  0  0  0  0
 39 36  1  0  0  0  0
M  RAD  2  11   2  21   2
M  END
$$$$
