3gca_1a.log
 OpenBabel02281910273D
Gaussian groups/kemi/kmacke/programs/G09D/g09/g09 # opt freq wb97xd/6-31++g(d,p)
 31 27  0  0  0  0  0  0  0  0999 V2000
    5.6611   -1.3555   -0.5546 O   0  0  0  0  0  0  0  0  0  0  0  0
    2.5485   -0.7143    1.0887 O   0  0  0  0  0  0  0  0  0  0  0  0
    3.4519    0.1454   -0.7820 O   0  0  0  0  0  0  0  0  0  0  0  0
    4.6546   -1.5492    0.3946 C   0  0  0  0  0  0  0  0  0  0  0  0
    3.4866   -0.6160    0.1820 C   0  0  0  0  0  0  0  0  0  0  0  0
    4.2634   -2.5753    0.3567 H   0  0  0  0  0  0  0  0  0  0  0  0
    5.0470   -1.3851    1.4051 H   0  0  0  0  0  0  0  0  0  0  0  0
    5.3304   -0.7320   -1.2147 H   0  0  0  0  0  0  0  0  0  0  0  0
    1.7931   -0.0928    0.8810 H   0  0  0  0  0  0  0  0  0  0  0  0
   -1.7496    2.4075    0.1870 O   0  0  0  0  0  0  0  0  0  0  0  0
    1.4068    1.7544   -1.3715 O   0  0  0  0  0  0  0  0  0  0  0  0
    0.5521    0.9165    0.5250 O   0  0  0  0  0  0  0  0  0  0  0  0
   -0.7425    2.5101   -0.7638 C   0  0  0  0  0  0  0  0  0  0  0  0
    0.4673    1.6435   -0.4640 C   0  0  0  0  0  0  0  0  0  0  0  0
   -1.0791    2.2504   -1.7771 H   0  0  0  0  0  0  0  0  0  0  0  0
   -0.3926    3.5474   -0.8016 H   0  0  0  0  0  0  0  0  0  0  0  0
   -2.2504    1.5867    0.0122 H   0  0  0  0  0  0  0  0  0  0  0  0
    2.1843    1.1700   -1.1590 H   0  0  0  0  0  0  0  0  0  0  0  0
   -4.1984   -1.7924   -1.9721 O   0  0  0  0  0  0  0  0  0  0  0  0
   -3.0935   -1.1839    1.3704 O   0  0  0  0  0  0  0  0  0  0  0  0
   -2.9556    0.0483   -0.5101 O   0  0  0  0  0  0  0  0  0  0  0  0
   -4.0348   -2.0733   -0.6112 C   0  0  0  0  0  0  0  0  0  0  0  0
   -3.2986   -0.9608    0.1068 C   0  0  0  0  0  0  0  0  0  0  0  0
   -5.0065   -2.2054   -0.1170 H   0  0  0  0  0  0  0  0  0  0  0  0
   -3.4692   -3.0030   -0.4747 H   0  0  0  0  0  0  0  0  0  0  0  0
   -3.8436   -0.9039   -2.1169 H   0  0  0  0  0  0  0  0  0  0  0  0
   -2.5537   -0.4226    1.8418 H   0  0  0  0  0  0  0  0  0  0  0  0
   -1.6859    0.6458    2.5818 N   0  0  0  0  0  0  0  0  0  0  0  0
   -2.1749    1.5250    2.7231 H   0  0  0  0  0  0  0  0  0  0  0  0
   -0.8913    0.8561    1.9740 H   0  0  0  0  0  0  0  0  0  0  0  0
   -1.3371    0.3297    3.4813 H   0  0  0  0  0  0  0  0  0  0  0  0
  1  4  1  0  0  0  0
  3  5  2  0  0  0  0
  4  7  1  0  0  0  0
  5  4  1  0  0  0  0
  5  2  1  0  0  0  0
  6  4  1  0  0  0  0
  8  1  1  0  0  0  0
  9  2  1  0  0  0  0
 11 18  1  0  0  0  0
 11 14  1  0  0  0  0
 13 14  1  0  0  0  0
 13 10  1  0  0  0  0
 14 12  2  0  0  0  0
 15 13  1  0  0  0  0
 16 13  1  0  0  0  0
 17 10  1  0  0  0  0
 19 22  1  0  0  0  0
 20 27  1  0  0  0  0
 21 23  2  0  0  0  0
 22 25  1  0  0  0  0
 22 24  1  0  0  0  0
 22 23  1  0  0  0  0
 23 20  1  0  0  0  0
 26 19  1  0  0  0  0
 28 29  1  0  0  0  0
 28 31  1  0  0  0  0
 30 28  1  0  0  0  0
M  END
$$$$
