48
3sa1am1dma1tma-145
S        2.57128700      -1.61265800       0.56506000
O        2.28555200      -0.25046100       1.14154500
O        1.55443800      -2.57265900       1.05280500
O        2.30913600      -1.42875100      -1.02100200
O        3.96070300      -2.00175900       0.66705700
H        2.41493300       1.03914500      -0.11148000
H        1.33220400      -1.38359700      -1.18016800
S       -1.35793800      -2.09580800      -0.61743100
O       -1.88175800      -1.56750200       0.68658800
O       -2.41113200      -2.44223200      -1.55040400
O       -0.34484500      -1.12500800      -1.15352200
O       -0.56410600      -3.42537900      -0.29995400
H        0.25977100      -3.20909200       0.21831700
H       -0.24895600       0.43312900      -0.56189900
S       -1.09447100       2.34085900       0.17294700
O       -0.41246700       3.62557100       0.17132100
O        0.09179900       1.29792600      -0.21131100
O       -1.58227700       1.88657300       1.50413300
O       -2.13909600       2.15839800      -0.86236800
N       -0.14202000      -0.26101000       2.40634200
H       -0.07722000      -0.54184400       3.37969300
H       -0.60944100       0.66152800       2.28823700
H        0.81156700      -0.22742800       1.97382900
H       -0.71953300      -0.93578100       1.86684500
C       -4.63624300       0.85540300       1.13876500
N       -3.90372300       0.26853400      -0.00439800
C       -4.76709200      -0.28876800      -1.07029300
H       -3.27264700       1.00669800      -0.40434500
H       -5.21525600       0.07521200       1.63544600
H       -3.90399200       1.29234700       1.81778000
H       -5.30345100       1.63504900       0.76836700
H       -5.42255200      -1.04722200      -0.63998600
H       -5.35903700       0.51889700      -1.50300900
H       -4.13124800      -0.75249700      -1.82376400
H       -3.25361600      -0.46772700       0.33679000
N        2.98188900       1.72929000      -0.64729700
C        2.46447500       1.80537200      -2.03747900
C        2.84862000       3.02717500       0.06487300
C        4.37615400       1.21415700      -0.61209200
H        3.19297200       2.89106600       1.09055300
H        3.46732700       3.77087900      -0.44204500
H        1.79966600       3.33073000       0.05997800
H        2.49163000       0.80389900      -2.46700700
H        1.43981600       2.17051600      -2.00577200
H        3.10117300       2.48369800      -2.60948000
H        4.40644100       0.24872900      -1.11685900
H        5.02959200       1.93267900      -1.11090000
H        4.67172300       1.07721400       0.42737900
48
3sa1am1dma1tma-17
S        1.49823000       2.25338500       0.32418200
O        0.11545300       2.18596000       0.87962500
O        2.40083000       1.38658000       1.13487100
O        1.41110600       1.52504900      -1.12312300
O        1.99117300       3.58290200       0.03364600
H       -2.58791200       1.09812700       0.11001800
H        0.97348700       0.64125300      -1.01976800
S        1.11329300      -2.02968900      -0.38815200
O        0.24085100      -0.86104100      -0.76258900
O        2.24995100      -2.19485500      -1.30053500
O        1.51777400      -1.92457700       1.03069300
O        0.21740300      -3.31438800      -0.57684200
H       -0.63945800      -3.19052400      -0.07958000
H        3.42391000      -0.96550700      -0.76883000
S       -2.87657500      -1.52633100       0.27689400
O       -2.01362600      -2.64207200       0.71542700
O       -4.29118300      -1.78888100       0.12742900
O       -2.58248400      -0.29649300       1.10307800
O       -2.37464500      -1.11042300      -1.20663000
H       -1.38618600      -1.04708200      -1.18403500
H       -1.11565200      -0.36693100       2.02919600
N       -0.15229200      -0.13413100       2.34960100
H        0.51652000      -0.82554800       1.95171800
H       -0.08882000      -0.11743900       3.36232300
H        0.06021800       0.80125700       1.94229400
N        4.00656200      -0.29387600      -0.23162600
H        3.34095500       0.30881800       0.31721000
C        4.83653400      -1.06444700       0.71863600
H        4.16941700      -1.68667600       1.31556600
H        5.53487600      -1.69255100       0.16352200
H        5.38204100      -0.37036500       1.35946900
C        4.75625800       0.58616500      -1.15309500
H        5.42373300      -0.01643800      -1.77086800
H        4.03674900       1.11792500      -1.77620700
H        5.33006400       1.30560400      -0.56752100
N       -2.92032600       1.92548400      -0.44064200
C       -2.86920300       3.09641400       0.47266100
C       -2.03636700       2.11113700      -1.62049300
C       -4.31158300       1.58941800      -0.84207100
H       -2.07932100       1.20680900      -2.22630400
H       -2.39360600       2.96998600      -2.19292300
H       -1.02006200       2.28324900      -1.26997500
H       -3.47657900       2.87520300       1.35111300
H       -1.82963100       3.25872100       0.76006900
H       -3.26887200       3.96885600      -0.04872300
H       -4.89182800       1.37232900       0.05456800
H       -4.73821000       2.43648000      -1.38322500
H       -4.28726200       0.70006200      -1.47144700
48
3sa1am1dma1tma-124
S        2.32004800      -1.88737100      -0.04638400
O        1.37995600      -2.86241100       0.54647700
O        3.60475600      -2.38339300      -0.49453900
O        1.60422800      -1.33512300      -1.40069800
O        2.42469300      -0.66963300       0.82550900
H       -0.36360900       0.39992200      -0.08017300
H        0.63432300      -1.26354100      -1.24112400
S       -1.77601700      -2.03423600       0.11659800
O       -1.00359300      -0.98957400      -0.65380200
O       -1.66515700      -1.81020100       1.56654100
O       -3.15595900      -2.12060900      -0.37534600
O       -1.10383400      -3.41895700      -0.24091000
H       -0.14752300      -3.37550500       0.03507600
S       -0.66958800       2.39776300       0.79511300
O        0.19128600       1.20474400       0.08872400
O        0.14000600       3.57934800       0.51339400
O       -1.98721000       2.37186000       0.11724500
O       -0.75037500       2.01534300       2.21942300
H        2.26359400       0.91065400      -0.34333500
N        0.42827500      -0.44332600       2.69453500
H        0.05086900       0.52770000       2.66248400
H       -0.32074900      -1.07515200       2.34115700
H        1.24428800      -0.52412200       2.04441200
H        0.69469400      -0.70656900       3.63818800
C       -3.40350800       0.68152900      -2.30566800
N       -3.71899600       0.56724200      -0.86404700
C       -5.05352800       1.07497400      -0.48400800
H       -3.62235200      -0.43416600      -0.59731600
H       -3.39881600       1.73582200      -2.58440500
H       -2.41792400       0.24433500      -2.46404900
H       -4.15030400       0.13458100      -2.88282100
H       -5.11276900       2.13558000      -0.73104600
H       -5.82080400       0.51718400      -1.02275800
H       -5.18391600       0.94288000       0.58978700
H       -2.99462500       1.11824300      -0.34530800
N        2.90999200       1.60434900      -0.76018400
C        2.19922300       2.31417300      -1.85478300
C        3.27403400       2.52637900       0.34788400
C        4.08759700       0.85150600      -1.26664000
H        3.71095300       1.93325600       1.15138500
H        3.99908800       3.25327900      -0.02428900
H        2.36808200       3.03169400       0.68794000
H        1.83688600       1.57036000      -2.56440600
H        1.36543300       2.86949300      -1.42643500
H        2.90423500       2.99138300      -2.34187700
H        3.75161200       0.14841800      -2.02835600
H        4.80222000       1.56375000      -1.68388300
H        4.52785600       0.29166000      -0.44306500
