71
3sa2tma2eda-17
S       -2.27418600       2.39929000       0.08506600
O       -1.03596900       1.90278500       0.74150800
O       -3.43948300       2.49552200       0.95593500
O       -2.59978000       1.25995200      -1.02727800
O       -1.97615400       3.60512100      -0.72635500
H       -2.28568700       0.38138500      -0.65779500
H        1.21165400       2.89768700      -0.12717800
S        3.19298000       0.99192100       0.23922900
O        4.38738900       1.76958100       0.54905900
O        1.91500900       1.71243700       0.68959700
O        3.03943300       0.72854900      -1.24848500
O        3.16371600      -0.35966600       0.92871400
S       -1.11758000      -2.10232700      -0.71190000
O       -1.81124400      -0.96231900       0.11580700
O       -0.84172400      -1.52104900      -2.06913300
O        0.15797200      -2.40120000      -0.00711600
O       -2.05994200      -3.23260000      -0.77221800
N        3.34642000      -2.32604800      -0.84577700
C        2.58738100      -2.25848600      -2.11899500
C        4.80000200      -2.13715200      -1.06601600
C        3.04704300      -3.56770900      -0.09096300
H        5.30368700      -2.14450100      -0.09934100
H        5.17653300      -2.94231200      -1.70159100
H        4.94820400      -1.16557200      -1.53846400
H        1.52182400      -2.30875200      -1.89372900
H        2.82960900      -1.31233400      -2.60170400
H        2.88476100      -3.10057700      -2.74950100
H        1.96645500      -3.62713600       0.04689700
H        3.41581900      -4.42724900      -0.65633200
H        3.54780400      -3.51205300       0.87670300
H        3.07127200      -1.51685100      -0.21861400
N       -4.39604200      -1.47622200       0.31620200
C       -4.99981700      -0.40391400       1.14492100
C       -4.77630700      -1.35339900      -1.11464700
C       -4.68162700      -2.83143200       0.84351100
H       -4.21002200      -2.09750200      -1.67656800
H       -5.85158700      -1.51956300      -1.21558100
H       -4.51254200      -0.35132800      -1.45574500
H       -4.66507300      -0.52840400       2.17547100
H       -4.66781700       0.57182100       0.78348600
H       -6.08855600      -0.48406700       1.09587900
H       -4.34166100      -2.88209300       1.87859000
H       -5.75779400      -3.01591000       0.79488600
H       -4.12210400      -3.55029100       0.24518000
H       -3.33874900      -1.33882400       0.33186800
C        1.43198000       0.43086700       3.95145200
N        2.32886600      -0.71272800       3.79498100
C        0.08767400       0.14177600       3.29301000
N        0.29420400      -0.21981500       1.87367700
H        2.99663100      -0.75239900       4.55495900
H        2.85842600      -0.62084000       2.92721400
H        1.24651100       0.61190100       5.01460600
H        1.84279100       1.35682400       3.52433700
H       -0.56317500       1.01872100       3.30626300
H       -0.40879200      -0.69906500       3.78344400
H        0.84492800       0.53089000       1.40237800
H       -0.59147500      -0.34498200       1.35223600
H        0.81627100      -1.09307800       1.76983400
C        1.07740900       3.14994900      -2.21308500
N        0.81036900       3.60845700      -0.82055700
C        0.19320400       1.96673000      -2.59267700
N        0.38008000       0.83158100      -1.66601600
H       -0.22030800       3.72310300      -0.66699600
H        1.27517100       4.49573300      -0.63934700
H        0.87113800       3.97565000      -2.89684400
H        2.13369200       2.87552400      -2.26933900
H        0.47246800       1.63809800      -3.59569500
H       -0.86378900       2.23904000      -2.58954600
H        1.40886200       0.63868000      -1.53904300
H       -0.12036400      -0.05171600      -1.96437900
H        0.00284500       1.07335400      -0.73613900
71
3sa2tma2eda-24
S        2.15136100      -2.13533400      -0.59717000
O        0.65664800      -2.15884400      -0.39276800
O        2.81245200      -1.45989900       0.53433600
O        2.35260200      -1.17195900      -1.88131900
O        2.69033200      -3.41692900      -1.01121800
H        2.11056700      -0.22769000      -1.65260100
H       -2.20064200      -2.29664700      -0.52841000
S        0.92578600       1.97115200      -0.36010000
O        0.91766200       3.44142200      -0.48359200
O       -0.46170500       1.41205400      -0.26227600
O        1.60585700       1.32611800      -1.55542200
O        1.68060100       1.53643900       0.89003000
S       -3.30445400      -0.56109600       0.30372400
O       -3.11478400       0.07419500      -1.04070300
O       -2.27547100      -1.79233900       0.34691700
O       -2.78042800       0.30773900       1.39052600
O       -4.65551900      -1.05778600       0.51491200
N       -2.65014300       2.98508700       0.05016900
C       -2.05561600       3.66282700       1.22973200
C       -2.31440700       3.69180400      -1.21191000
C       -4.11280200       2.78908900       0.20128700
H       -2.69558500       3.09842000      -2.04355600
H       -2.79017500       4.67530700      -1.20157900
H       -1.22875400       3.78698800      -1.27553600
H       -2.23149700       3.03273100       2.10176000
H       -0.98554100       3.78066600       1.05273100
H       -2.53485200       4.63636900       1.35699700
H       -4.29543600       2.23833800       1.12272300
H       -4.59433100       3.76941000       0.22668800
H       -4.47147500       2.19879800      -0.64131400
H       -2.17251700       2.06251200      -0.00218900
N        4.26684500       1.26190600       0.46386300
C        4.87337900       0.56908800       1.62469200
C        4.76383800       0.71971500      -0.82399400
C        4.43700700       2.73389900       0.53258400
H        4.19748000       1.18453200      -1.63100300
H        5.82892500       0.94855700      -0.91386600
H        4.59655200      -0.35555100      -0.83548900
H        4.43377400       0.97285000       2.53761600
H        4.64083800      -0.49248300       1.54220400
H        5.95298500       0.73879500       1.62141200
H        4.00407400       3.09203300       1.46607600
H        5.50076800       2.97755500       0.47967300
H        3.89341500       3.18572000      -0.29806000
H        3.21696900       1.12103700       0.53382100
C       -0.80576400      -2.33188700       3.25163600
C        0.16357600      -1.16594600       3.09481800
N       -0.02025600      -0.50089400       1.78900300
N       -0.62441200      -2.92244000       4.57518900
H       -1.00371300      -3.86110000       4.60630900
H       -1.10761800      -2.38063100       5.28387900
H       -1.82918200      -1.98802100       3.04851200
H       -0.56971200      -3.08485100       2.49374000
H        1.19448500      -1.52018000       3.15345800
H        0.00388200      -0.42101200       3.88021900
H        0.12446600      -1.17510600       1.01448500
H        0.66510300       0.26091600       1.62040500
H       -0.97099500      -0.10916600       1.66949000
C       -0.75667600      -1.38630300      -3.32856800
N       -0.66581400      -0.50216100      -2.14823100
C       -1.86354300      -2.42081500      -3.16975500
N       -1.74900000      -3.14882600      -1.90007000
H       -0.02324200       0.29034100      -2.27610100
H       -0.25662300      -1.04186800      -1.35682900
H       -0.95311300      -0.77681400      -4.21314900
H        0.22157400      -1.86166500      -3.44476200
H       -1.81241000      -3.08415500      -4.04267800
H       -2.83795900      -1.92129300      -3.18203400
H       -0.78570100      -3.41563600      -1.69367900
H       -2.31256800      -3.99225100      -1.92074000
H       -1.58579600      -0.14051000      -1.80988200
71
3sa2tma2eda-20
S        2.23305300      -2.41979300       0.00283100
O        2.63247700      -1.23792800      -1.04573900
O        2.79348000      -3.62752500      -0.57539400
O        0.72406900      -2.39677800      -0.02209700
O        2.74089800      -1.98397800       1.31164100
H       -2.04116100      -2.46989300      -0.41439400
H        2.30617500      -0.38602400      -0.64706900
S       -3.26429900      -0.70779500       0.15495000
O       -2.79615500       0.33593600       1.11756700
O       -2.22754200      -1.89244900       0.41576400
O       -4.61774900      -1.17847800       0.40062600
O       -3.02944800      -0.25961700      -1.25312300
S        1.01329300       1.99256000      -0.55062500
O       -0.38112200       1.85211600      -0.04548700
O        1.61069000       3.31669200      -0.30762300
O        1.84066600       0.93417100       0.25184400
O        1.08659600       1.58242600      -1.98992300
N        4.37349300       1.49525500       0.31985300
C        5.05961400       0.43173300       1.09166500
C        4.69025700       1.42399500      -1.12894700
C        4.60529100       2.85204700       0.86642600
H        4.05788700       2.14077900      -1.65505300
H        5.74731900       1.65705000      -1.27925300
H        4.46690400       0.41662600      -1.48285300
H        4.78141400       0.52548000       2.14159600
H        4.72227800      -0.54133800       0.73168100
H        6.14100500       0.54088000       0.97720200
H        4.32828900       2.85607800       1.92114900
H        5.66067800       3.11390800       0.75554900
H        3.96080200       3.54840000       0.32796800
H        3.31820800       1.30570900       0.38183600
N       -2.96741800       2.76308300      -0.33661600
C       -2.62771100       2.90180000      -1.77579100
C       -4.42635800       2.56825400      -0.13855200
C       -2.44950100       3.89938600       0.46792800
H       -4.61098100       2.35860800       0.91412200
H       -4.94729100       3.47540000      -0.45239200
H       -4.74937700       1.71518900      -0.73465200
H       -1.54611400       2.98576100      -1.86633300
H       -2.97335700       2.00332200      -2.28629100
H       -3.12680000       3.79055500      -2.16880000
H       -1.36992600       3.94668600       0.33294600
H       -2.93682000       4.81799200       0.13365700
H       -2.67955900       3.70949000       1.51675400
H       -2.49293500       1.90907800       0.01707400
C        0.15901500      -0.78377100       3.24734100
N       -0.04193700      -0.41180500       1.82545400
C       -1.04625000      -1.53143000       3.79766900
N       -2.17996200      -0.63142300       3.98512900
H        0.72721300       0.17192600       1.44811500
H       -0.92670800       0.08649200       1.64299400
H        1.06057900      -1.40015500       3.27406000
H        0.31780500       0.13377700       3.81830400
H       -0.75703200      -1.93108400       4.77470300
H       -1.26038300      -2.39113800       3.14320200
H       -2.89678600      -1.07977800       4.54385400
H       -2.61121300      -0.38511200       3.09566200
H       -0.03520700      -1.26212800       1.23575000
C       -0.31345900      -1.70525500      -3.05820300
N       -0.38348700      -0.72232300      -1.95504300
C       -1.42012400      -2.74911300      -2.95884900
N       -1.46725700      -3.37783700      -1.63110900
H        0.21159800       0.12877700      -2.11414200
H       -0.02603400      -1.19115500      -1.10138600
H       -0.40050900      -1.17291900      -4.00759700
H        0.67661000      -2.16688000      -3.01081100
H       -1.24734200      -3.47960000      -3.75916700
H       -2.38998300      -2.27354100      -3.13787800
H       -0.53360500      -3.60682800      -1.28396900
H       -2.01382300      -4.23225700      -1.66363500
H       -1.35811100      -0.41490000      -1.75925500
