29
1sa1dma1eda-01
S        1.91277300       0.05923000      -0.03322500
O        3.28152700       0.54974300      -0.07458100
O        1.13373500       0.12450400      -1.27867500
O        2.03426900      -1.56342600       0.23667200
O        1.11745100       0.55957700       1.12664800
H        2.87634800      -1.71202700       0.68552800
H       -0.36298700       1.22418900       0.61556400
H       -0.27436500      -2.36283300       0.02370000
H       -1.63206800      -3.23144700       0.72329300
H       -2.18287100      -2.73105400      -1.53257600
H       -3.21872500      -1.73253800      -0.49376200
H       -0.73194300      -0.70496600      -1.70203000
H       -2.22887500      -0.48911300      -2.34408700
H       -1.73695200      -1.65495300       2.29144500
H       -0.44620000      -0.88372400       1.64416100
C       -1.30991800      -2.24665700       0.36365200
C       -2.18708200      -1.88320400      -0.83173900
N       -1.37337900      -1.24906900       1.43832400
N       -1.72776700      -0.64444800      -1.47505400
N       -1.22869400       1.56873000       0.13808200
C       -0.84928100       2.64745800      -0.79402900
C       -2.25097100       1.93883600       1.13052600
H       -1.55191400       0.72277900      -0.42559400
H       -0.44226800       3.49080200      -0.23314900
H       -0.08937200       2.25461200      -1.47077600
H       -1.72991200       2.96857800      -1.35477500
H       -1.86632700       2.72704000       1.78084400
H       -3.14563200       2.29439700       0.61466900
H       -2.48377900       1.04430600       1.70871000
29
1sa1dma1eda-02
S       -1.76597700      -0.13210600       0.07185200
O       -1.54046700      -1.47567700       0.62255800
O       -1.26229800       0.08945900      -1.28859800
O       -3.37960700       0.02184900      -0.09711100
O       -1.35751400       0.94379500       1.01507900
H       -3.78926200      -0.30547700       0.71455500
H        0.25529700       1.35392200       0.63738100
H        3.16717900      -1.86296200       0.32907000
H        2.01648300      -3.14946300       0.71695200
H        1.79679600      -2.75068500      -1.60520200
H        0.35126600      -2.11118100      -0.81831500
H        2.43671000      -0.60958400      -2.14176700
H        0.80260300      -0.39999000      -2.10949000
H        0.49439600      -1.34447700       1.44449700
H        1.88126500      -1.34480900       2.31150600
C        2.09679500      -2.09256400       0.41747200
C        1.42634700      -1.95611900      -0.94446400
N        1.49959000      -1.17334800       1.38705500
N        1.61806000      -0.62281200      -1.54249200
N        1.12793300       1.61012400       0.11882500
C        2.17691700       2.05578500       1.04892500
C        0.75702100       2.59705200      -0.91449000
H        1.42212800       0.71409300      -0.36518800
H        1.83361200       2.93803800       1.59259000
H        2.37704000       1.23540400       1.73703500
H        3.08100900       2.30124100       0.48719400
H        0.41146300       3.51431000      -0.43475300
H        1.62568200       2.81071900      -1.54139800
H       -0.05050800       2.16651300      -1.50809500
29
1sa1dma1eda-03
S       -0.02559400      -1.64482200       0.12020400
O       -1.41810100      -1.74255600       0.56855700
O        0.92323000      -1.12291900       1.13518900
O        0.48555500      -3.18470100      -0.06676100
O        0.14853700      -0.97485400      -1.17969900
H       -0.25423800      -3.68941900      -0.42919000
H        1.05023700       1.54129900      -0.34351100
H       -0.90895000       0.96659100       1.07585900
H       -1.11856400       2.71482300       1.19998200
H       -3.26806300       1.48326500       1.33113800
H       -3.23561100       2.59482200      -0.04763800
H       -2.70821500      -0.29133100      -0.27710800
H       -4.02027300       0.52214900      -0.85866500
H       -0.83469400       1.25086400      -1.31648000
H       -0.80355900       2.87486800      -1.15001300
C       -1.30324100       1.84760200       0.55655200
C       -2.80788100       1.66303900       0.34569700
N       -0.54108800       2.00625200      -0.69191000
N       -3.03794500       0.60734200      -0.62898600
N        1.96564000       1.10371500       0.00700600
C        2.58770700       1.99993500       0.99456900
C        2.81858900       0.76093900      -1.14680000
H        1.65470500       0.21555500       0.47795500
H        2.84939100       2.94679800       0.51760400
H        1.87423500       2.18065200       1.79964000
H        3.48556900       1.53448800       1.40525000
H        3.07579800       1.67132300      -1.69278900
H        3.72871700       0.27128500      -0.79498900
H        2.25196500       0.07912300      -1.78147400
