44
1dma3msa1sa-1
S        0.80993300      -1.12905200      -0.79635300
O       -0.54382700      -1.69923800      -0.90887800
O        1.00396200       0.14237500      -1.52289700
O        1.23402900      -1.01317100       0.63270500
O        1.74531400      -2.21101800      -1.46503400
H       -1.88988700      -0.99606800       1.53256100
H        2.68918200      -1.94000100      -1.31810600
S        4.56236400      -0.06947200      -0.08397200
O        4.17756600      -1.26110600      -0.85370500
O        5.91704600       0.03819200       0.40027400
O        3.59494300       0.05745900       1.16777700
H        2.70039800      -0.34249200       0.97771700
C        4.15505800       1.35887000      -1.06102200
H        4.84886900       1.37414300      -1.90249700
H        3.12689400       1.25203600      -1.40859100
H        4.27874400       2.24499600      -0.43901300
S       -0.86243000       2.45780800       0.39811000
O       -0.77859900       3.44582200       1.45143500
O       -1.17870200       1.07219600       0.74874000
O        0.52652300       2.46250500      -0.37503600
H        0.68400600       1.57509800      -0.80696300
C       -2.01392300       2.99294700      -0.84178200
H       -1.72807000       3.99636600      -1.15643100
H       -1.98051500       2.28072000      -1.66652300
H       -3.00514300       2.97865700      -0.38741800
S       -3.81984400      -0.46191800      -0.62503300
O       -4.43335500       0.83737400      -0.44048300
O       -3.39011700      -1.22433400       0.55222200
O       -2.60519300      -0.30418600      -1.62166900
H       -1.79258500      -0.82997600      -1.33698100
C       -4.92734600      -1.49294200      -1.55756800
H       -5.83160800      -1.62288600      -0.96216900
H       -5.15316600      -0.98355400      -2.49421400
H       -4.43816900      -2.44976400      -1.73892800
N       -1.10959700      -1.24620200       2.16434600
C       -1.07447900      -2.71808200       2.30288000
C       -1.24744200      -0.50495200       3.43668600
H       -0.25086500      -0.94395900       1.67123400
H       -2.00375800      -3.05530600       2.76330400
H       -0.97131900      -3.14879300       1.30738200
H       -0.22128300      -2.99909800       2.92146100
H       -2.18552000      -0.79039400       3.91432500
H       -0.40711100      -0.75254300       4.08675600
H       -1.25020700       0.56037900       3.20986800
44
1dma3msa1sa-2
S        0.75442300       0.31839800       1.76490600
O        1.18815000       1.18663600       0.60163800
O       -0.01894300      -0.82498300       1.21861500
O        1.84674500      -0.02056300       2.64666000
O       -0.25638100       1.20682200       2.60728800
H       -0.96658800       1.54211200       2.00873200
S       -1.78022700       2.47703500      -0.61683300
O       -1.63214400       3.91418300      -0.67633300
O       -2.08204900       1.87189100       0.69390900
O       -0.50766600       1.74261000      -1.21525700
H        0.18365900       1.57344800      -0.48617800
C       -3.00359700       1.93876100      -1.78037000
H       -2.71498800       2.31043400      -2.76376300
H       -3.04181400       0.84903900      -1.75055900
H       -3.94835900       2.38736900      -1.47034500
S        4.16870600      -0.23123500      -0.45672200
O        5.28419000      -0.17926000      -1.37269400
O        2.99098900      -1.02986700      -0.82768200
O        3.70110000       1.25909300      -0.19095700
H        2.77301000       1.28136900       0.17583000
C        4.71294500      -0.78472800       1.14013300
H        5.05310900      -1.81429500       1.02305200
H        5.53396500      -0.13913100       1.45194300
H        3.87070900      -0.71969300       1.83236500
S       -3.18599000      -1.74122400       0.19968700
O       -3.88236400      -2.96626100      -0.12302800
O       -2.37127100      -1.10589900      -0.84933400
O       -2.27622300      -2.01037300       1.46048100
H       -1.42428200      -1.47482800       1.45102600
C       -4.34684000      -0.53875400       0.80078500
H       -4.84129600      -0.96333300       1.67444900
H       -3.79846100       0.37141200       1.04962900
H       -5.07063300      -0.35955800       0.00425900
N        0.35516900      -1.33774200      -1.51083600
C        0.27542900      -0.98787300      -2.94523400
C        0.37119200      -2.79570800      -1.24400000
H        1.21958900      -0.94074700      -1.10765400
H       -0.63271000      -1.42463100      -3.36200500
H        0.24292800       0.09731300      -3.03654700
H        1.15689400      -1.38183500      -3.45169700
H       -0.55251900      -3.23287100      -1.62411400
H        1.24080300      -3.23113100      -1.73625400
H        0.44242400      -2.93886100      -0.16670000
H       -0.45005400      -0.93739300      -1.01056500
44
1dma3msa1sa-3
S       -0.74153700      -0.43015300      -1.62219600
O       -0.76390300      -1.11437100      -0.28666100
O       -1.18757200       0.97628500      -1.43991400
O        0.50850500      -0.57759700      -2.34676000
O       -1.84197700      -1.17705200      -2.49658300
H       -2.67511900      -1.21439400      -1.97235200
S        2.95655300       2.27441600      -0.14872900
O        3.85355200       3.39946200      -0.02600200
O        1.80597800       2.17696700       0.75621500
O        3.81946700       0.94632600       0.02079400
H        3.24970200       0.22153000       0.39248700
C        2.36711100       2.15817200      -1.81967100
H        1.73256100       3.02734500      -1.99663700
H        3.23529400       2.17494000      -2.47880800
H        1.79507300       1.23587800      -1.93895300
S       -4.01401400       0.13968600       0.24934400
O       -3.34667500      -0.11699500       1.51849200
O       -3.98751100      -0.91647000      -0.76542400
O       -3.47813200       1.48564700      -0.38339300
H       -2.58137100       1.32359500      -0.83697500
C       -5.69946800       0.59808900       0.55014900
H       -6.17895800      -0.26692900       1.00941700
H       -5.70841900       1.45054700       1.22881300
H       -6.16623000       0.84184900      -0.40336000
S        2.29094800      -2.37421900       0.57166900
O        3.07070700      -3.22149100       1.44218900
O        2.18036400      -0.93701500       0.90852800
O        0.82969800      -2.95322100       0.50364800
H        0.18123400      -2.26862500       0.13272400
C        2.88127700      -2.48751100      -1.09871300
H        3.89452100      -2.08250500      -1.11276300
H        2.88419300      -3.54143500      -1.37709700
H        2.21180200      -1.90416200      -1.73545000
N       -0.24475700       0.64540200       1.82029500
C       -0.94045800       1.94796000       1.93836700
C       -0.23880800      -0.15845800       3.06253300
H       -0.66620100       0.07310700       1.06704700
H       -0.41766800       2.55577400       2.67717800
H       -0.90095600       2.44077100       0.96844900
H       -1.97268700       1.76518600       2.23295600
H        0.25077200       0.41037200       3.85379500
H       -1.27142000      -0.38146900       3.33151900
H        0.31013500      -1.08048000       2.87655400
H        0.71790000       0.83230400       1.50097700
