58
3sa1tma2eda-300012_125_18
S        2.64035000      -1.78938500       0.14734300
O        1.50167800      -2.40627400       0.88745700
O        3.94494700      -2.02395400       0.73924800
O        2.67115800      -2.48524000      -1.29568600
O        2.33821900      -0.34828600      -0.10968400
H        1.21982700       1.03527200      -1.44748400
H        1.75034100      -2.49445500      -1.65258000
S       -0.89553700      -1.34174800      -1.43144300
O       -0.46856900       0.07360100      -1.64363100
O        0.01841100      -2.28877200      -2.08197900
O       -0.81360200      -1.59722900       0.14845300
O       -2.32918800      -1.50706600      -1.72227100
H       -3.18398100      -0.52320900      -0.49386700
H        0.09195000      -1.96680600       0.41355200
S       -1.25939100       2.58442900       0.49822400
O       -1.65865000       1.49351500       1.46624500
O       -1.83397300       3.87680900       0.80393300
O        0.20101200       2.53930400       0.26979100
O       -1.94423800       2.12980600      -0.89248500
H       -1.44546300       1.34078900      -1.23588900
H        1.18308600       0.22791800       1.14931300
N        1.79251300       1.56593800      -2.12654500
C        2.36773800       0.55445600      -3.05104100
C        0.87896200       2.49717400      -2.83795000
C        2.84190400       2.30328400      -1.37769300
H        0.42864700       3.16345300      -2.10350600
H        1.45841900       3.06007400      -3.57271900
H        0.10367700       1.91122200      -3.32964700
H        3.01119900      -0.11197600      -2.47929200
H        1.54636200      -0.01824700      -3.48185700
H        2.93102000       1.07149900      -3.83072700
H        3.44257400       1.57513100      -0.83511000
H        3.45178900       2.86152300      -2.09142700
H        2.34426600       2.97715100      -0.68066400
C       -3.84288600      -1.33188100       1.28756000
C       -5.00119800      -2.12763900       0.69760700
N       -6.14056800      -1.23260500       0.49400100
N       -3.57118500      -0.17248300       0.40596000
H       -2.88202800       0.49558400       0.82686800
H       -4.45780500       0.30188200       0.21088100
H       -2.92917100      -1.92485300       1.34295700
H       -4.08771100      -0.94634200       2.28115300
H       -5.21348900      -2.98462000       1.34948800
H       -4.69010000      -2.52399700      -0.27387700
H       -6.68984800      -1.12221600       1.33938900
H       -6.75945400      -1.56807900      -0.23359700
C        1.61365800       1.27882700       2.88109500
C        3.00851500       0.67026100       3.03867900
N        2.89262100      -0.68994300       3.55790700
N        0.78204400       0.33402900       2.09948900
H       -0.20032300       0.65477400       1.98803800
H        0.85258700      -0.59156600       2.53901500
H        1.62443200       2.22947500       2.34553400
H        1.13171600       1.41875400       3.85215500
H        3.60729600       1.32785500       3.67949400
H        3.49290200       0.63980700       2.05797400
H        3.16279900      -0.76603900       4.52929900
H        3.43196200      -1.35365700       3.01080600
58
3sa1tma2eda-300012_161_13
S       -1.39418000      -0.73496800      -2.13612400
O       -0.29015000       0.44467600      -1.91708800
O       -2.63550700       0.05003900      -2.23791900
O       -1.34785200      -1.54828800      -0.87985900
O       -0.98399700      -1.50008200      -3.30272800
H       -1.90880500      -0.88382500       0.57816200
H        0.62942300       0.08374500      -1.86065700
S        0.69242600       0.43044200       2.38575800
O        0.53000200       0.03712600       0.95606900
O        0.48807200       1.88015900       2.56179400
O       -0.12475700      -0.41243800       3.27385300
O        2.20797800       0.08436200       2.75587300
H        2.77504600       0.33323700       1.98163400
S        3.15121000       0.76540900      -0.87141800
O        2.29191200      -0.29083500      -1.46182900
O        2.59085600       2.11651700      -1.05515300
O        3.63338800       0.45320100       0.47813800
O        4.52534500       0.73932600      -1.73178700
H        4.32166200       1.02917800      -2.63167800
N        1.30423300      -2.58335500       0.25653100
C        1.34059900      -3.18362500      -1.10439100
C        2.64202000      -2.62659300       0.90386900
C        0.27446400      -3.22165600       1.11626300
H        2.56977700      -2.16938000       1.89061900
H        2.95382500      -3.67002600       0.98506400
H        3.34235200      -2.05754300       0.29508100
H        0.35815300      -3.07363400      -1.56149800
H        2.08224500      -2.64533400      -1.69215200
H        1.61062100      -4.23758200      -1.00627400
H       -0.67387000      -3.19477200       0.58174500
H        0.57503200      -4.25263200       1.31522900
H        0.20328500      -2.65808900       2.04885300
H        1.03870500      -1.58081500       0.18231400
C       -3.64282200      -1.00100400       1.78492800
C       -4.50979400      -1.35328300       0.58185100
N       -4.84000500      -0.16808300      -0.20696000
N       -2.35933800      -0.37788600       1.37807200
H       -1.68628200      -0.36370400       2.16050000
H       -2.48224100       0.59822500       1.01786100
H       -3.40456700      -1.90114800       2.35846500
H       -4.16240500      -0.29656200       2.43884600
H       -5.42415900      -1.80956200       0.97402600
H       -3.99572000      -2.11800300      -0.01661600
H       -5.78575700      -0.22736700      -0.56382000
H       -4.21923700      -0.10976100      -1.01509100
C       -2.25883700       3.48781000      -0.02105400
N       -2.79427600       2.12777100      -0.04593000
C       -0.89064500       3.54964700      -0.68613800
N        0.03825300       2.56664900      -0.09499900
H       -2.74234200       1.71526200      -0.98100900
H       -3.78154200       2.11002300       0.19919800
H       -2.90116200       4.21359000      -0.53884600
H       -2.17447500       3.81212200       1.02248100
H       -0.46017300       4.54689200      -0.57621000
H       -0.96383700       3.31557900      -1.75161300
H        0.12330100       2.61042000       0.93753600
H        0.99883600       2.60898600      -0.48656500
H       -0.26128100       1.60479700      -0.31091500
58
3sa1tma2eda-300012_48_13
S       -2.99318200       1.30368100      -0.17640800
O       -2.18466300       2.29069100       0.58562100
O       -4.36995100       1.65299800      -0.45566900
O       -2.28543800       1.18472900      -1.62894600
O       -2.81975900      -0.05962000       0.42553200
H        1.06590700      -0.18904300      -1.35632700
H       -1.30380000       1.23577600      -1.49532000
S        0.99539600       2.43883400      -0.43255800
O        0.29704400       1.23581800      -1.01146400
O        1.34062800       2.21018800       0.98457400
O        2.14849500       2.85400300      -1.23510000
O       -0.06882000       3.60926300      -0.51714300
H       -0.91309900       3.29230500      -0.09990300
S        1.33346400      -1.84272200      -0.01389200
O        1.49101100      -1.08343600      -1.44059800
O        1.90361000      -3.15869200      -0.24171000
O        2.07374900      -0.99049300       0.95887400
O       -0.12423800      -1.82039300       0.27681100
N       -2.65738100      -1.98666800      -1.46764200
C       -2.59931100      -3.29993200      -0.77746300
C       -4.02946100      -1.66715000      -1.94047400
C       -1.66673300      -1.89617400      -2.56986600
H       -4.01967200      -0.67690900      -2.39558600
H       -4.34000100      -2.42277700      -2.66519600
H       -4.70085900      -1.65539400      -1.08240800
H       -1.58833000      -3.43634300      -0.39449900
H       -3.31048600      -3.28521400       0.04936400
H       -2.86487100      -4.08619200      -1.48757800
H       -0.67167400      -2.06995200      -2.16467700
H       -1.91303900      -2.64726100      -3.32390800
H       -1.72330700      -0.89538900      -2.99694600
H       -2.44004700      -1.25686200      -0.74764000
C       -1.55967800      -1.27234200       3.46369100
N       -2.77135000      -0.46053500       3.45396900
C       -0.33112500      -0.38634500       3.29285100
N       -0.44565800       0.38090600       2.03300900
H       -3.50009900      -0.85728300       4.03205400
H       -3.13372200      -0.34817000       2.50994800
H       -1.46696500      -1.78273100       4.42691300
H       -1.54351300      -2.04472800       2.68081900
H        0.58521800      -0.97639200       3.22411700
H       -0.25661100       0.32864500       4.11492900
H       -0.53362200      -0.27838100       1.23986900
H        0.37245300       0.97984700       1.82619800
H       -1.26918400       0.99294900       2.01756600
C        5.30450700      -1.11410300      -0.34051800
N        6.15897500      -0.49546000       0.67549400
C        4.55197500      -0.01843800      -1.08832400
N        3.85358200       0.82604500      -0.08662200
H        7.06484100      -0.23556800       0.30117300
H        6.31675900      -1.11536300       1.46020400
H        5.84790500      -1.73004700      -1.06721900
H        4.57577500      -1.76111100       0.15631800
H        3.80038600      -0.43527400      -1.75996100
H        5.23286500       0.62472700      -1.65231500
H        3.10139700       0.26087100       0.37572700
H        3.42417800       1.67132700      -0.50144800
H        4.53279400       1.07969800       0.63834900
