43
2sa1fa2eda-1
S        1.03891500       1.29956100       0.50766500
O       -0.25835000       1.97119900       0.85225500
O        1.45599800       0.31713600       1.51115600
O        1.01928100       0.77528800      -0.87400500
O        2.14436100       2.43860700       0.56486200
H        1.84655200       3.20285600       0.00213300
S       -1.03592300      -2.13699100      -1.06059500
O        0.17063800      -2.78903000      -1.61708000
O       -2.31538600      -2.74954200      -1.36683100
O       -0.81595000      -1.85764700       0.39683800
O       -1.13273800      -0.67182400      -1.74370000
H        1.66413700      -1.36676400       0.71761100
H       -0.32583500      -0.15093700      -1.51812400
H       -0.36032500       5.49089800      -1.77808100
H       -0.74219400       3.21526600      -0.10528200
C       -0.03562500       4.65974600      -1.14141900
O       -1.05119000       3.97522700      -0.67796100
O        1.14413300       4.44085400      -0.92097700
H       -3.78817100       1.37701100       0.63840200
H       -2.88841500       0.43905000      -0.58512500
H       -5.19531100      -0.50294700      -0.20737400
H       -3.91447500      -1.65008000       0.17384800
H       -5.59232400      -0.22600400       2.10280400
H       -5.11777200      -1.79074400       2.09804800
H       -1.60208000       0.90426000       1.45876300
H       -2.73412500      -0.07754000       2.29347100
C       -3.34919900       0.40319500       0.40317000
C       -4.38187300      -0.71473400       0.49696000
N       -2.28119800       0.12842500       1.39800900
N       -4.81852200      -0.84601700       1.89007600
H       -1.72425300      -0.71793200       1.08728000
H        3.66436200      -2.26082000      -1.26056400
H        2.98131900      -0.62869600      -1.07030400
H        5.25301200      -0.77916700      -0.00013100
H        3.98471300      -0.44589200       1.18542800
H        5.33667700      -3.01351100       0.80151400
H        5.03801700      -2.20202000       2.19010000
H        1.42074000      -2.47151800      -0.52228500
H        2.45985700      -2.82924200       0.78869900
C        3.31062700      -1.52136900      -0.53681600
C        4.37739700      -1.20677600       0.50431700
N        2.13158100      -2.09750700       0.15216900
N        4.66438000      -2.41906800       1.27436300
43
2sa1fa2eda-4
S       -1.51564500       1.99810200      -1.10145000
O       -2.25519000       2.03743600       0.17436500
O       -0.14594500       2.53112200      -1.03704700
O       -1.60501600       0.68951800      -1.78061500
O       -2.35905600       3.03499400      -2.01775400
H       -1.91750600       3.10670000      -2.87536500
S        0.72622300      -1.83378200      -0.51058500
O        0.20168200      -1.06181700       0.66842700
O        1.91298600      -1.12988400      -1.05471200
O        0.86496000      -3.25607100      -0.27662800
O       -0.42359100      -1.70868400      -1.62327000
H       -0.67717500      -0.76292200      -1.75299100
H        6.09015000      -0.71524900      -0.02822600
H        3.48025400      -1.47214300      -0.89432400
C        5.00503100      -0.59226900      -0.13697100
O        4.47213500      -1.58177600      -0.79945400
O        4.41833000       0.37313600       0.32828900
H       -4.26348000      -1.28957800       0.23567500
H       -2.90230900      -1.33003100      -0.90985700
H       -3.50902600      -3.64538500      -0.11490600
H       -1.86314500      -3.19768200       0.32383400
H       -4.13243800      -3.42014500       2.13520700
H       -2.56501900      -3.82839600       2.36666800
H       -2.58014700       0.36443200       0.80395000
H       -2.66537700      -0.87749700       1.97736100
C       -3.20433000      -1.53476400       0.11671700
C       -2.91624400      -2.97621400       0.52010900
N       -2.42922100      -0.63866000       1.01074500
N       -3.17668400      -3.13513200       1.95375300
H       -1.39634500      -0.81315800       0.89552200
H        2.46635700       1.73975700       2.54453000
H        2.74803600       2.99154100       1.32149800
H        0.92971600       3.68210100       2.87508500
H        0.33542700       3.49977000       1.22355700
H       -0.41228900       1.92487800       3.49292500
H       -1.17144100       2.14305400       2.03764600
H        2.65460300       0.81645000       0.33138400
H        1.13492000       0.51718000       0.95958800
C        2.02115100       2.26806900       1.69810800
C        0.71274200       2.94812900       2.08920700
N        1.77370700       1.26647300       0.63665500
N       -0.28274500       1.95656200       2.49004100
H        1.29114400       1.69100000      -0.17036700
43
2sa1fa2eda-2
S       -1.67829100      -0.83781000      -0.93893100
O       -1.21925600      -2.10489100      -0.34656700
O       -2.12290700       0.13167100       0.12392500
O       -0.74912100      -0.20072800      -1.87714100
O       -2.97071300      -1.15413900      -1.80171200
H       -3.69599000      -1.44350800      -1.18801800
S        2.36160100       0.82302200      -0.56181900
O        1.55565600       0.40318200       0.63186300
O        1.89722600       2.14892800      -1.02815600
O        3.79408200       0.65043600      -0.40451400
O        1.95952300      -0.23934100      -1.71319300
H        0.98309200      -0.21278500      -1.85547200
H       -5.70606500      -1.69333100       1.86245300
H       -3.29488000      -0.34186500       1.15655000
C       -4.89579900      -1.39574100       1.18620600
O       -4.03460200      -0.60699400       1.77860000
O       -4.84946900      -1.78157500       0.03009300
H       -1.20359600       3.00502400       1.87455000
H        0.38745000       2.21015400       1.70478900
H        0.63882200       4.68125100       2.17452000
H        1.31119600       4.20746600       0.60859300
H       -1.17908900       5.67958800       1.03615900
H        0.01434500       5.95410600      -0.04958300
H       -1.22446600       1.64694800      -0.06546700
H       -1.13465000       3.27509100      -0.55148600
C       -0.28513900       2.95816000       1.28242500
C        0.37937000       4.32539500       1.16950000
N       -0.64454900       2.50705500      -0.08348500
N       -0.50441700       5.22802100       0.42856600
H        0.24135400       2.31396500      -0.60801800
H        2.02044500      -3.98840000      -0.09419800
H        2.23971200      -2.47562800      -1.01724300
H        4.40663900      -3.25056600      -0.00351200
H        3.90529100      -1.66514800       0.58073800
H        3.81942800      -4.17175600       2.08368100
H        4.28094900      -2.68171000       2.57426600
H        0.30740800      -2.38568500       0.48371400
H        1.39886800      -2.60043400       1.78695300
C        2.28576500      -2.92954400      -0.02714300
C        3.65784400      -2.73142500       0.60704700
N        1.27613100      -2.25917300       0.83008800
N        3.61289400      -3.18235500       2.00123800
H        1.43476600      -1.21445500       0.82938600
