56
4sa4ma-11
S       -2.70056000      -1.90659300      -0.74586700
O       -2.03185300      -2.28643000       0.52552200
O       -3.56060900      -0.72183500      -0.58307700
O       -1.77345100      -1.87885200      -1.88235900
O       -3.69464900      -3.12678200      -1.11884700
H       -4.47011500      -3.08006600      -0.54272400
S        3.05655100       0.00893000      -1.62323600
O        2.55169100       1.39812000      -1.64970600
O        3.83352900      -0.32007600      -0.42077700
O        2.00637600      -0.97026400      -1.97858400
O        4.08047300      -0.13352800      -2.86541900
H        4.91128600       0.30221700      -2.62957000
S       -2.14072500       2.45746100      -0.03864800
O       -0.94233200       1.53643200      -0.01355900
O       -2.90791100       2.28876100       1.20767700
O       -1.80270700       3.81222500      -0.43625500
O       -3.03450000       1.87564000      -1.24527300
H       -3.32668100       0.96267400      -1.01284200
S        1.76554800      -0.67852700       2.43701800
O        2.21028300      -2.07200600       2.25427000
O        0.77836500      -0.29764400       1.37614500
O        1.34744500      -0.28136900       3.77169200
O        3.05015500       0.27037700       2.12065800
H        3.43932100      -0.01593900       1.26054900
C       -1.90859900      -0.24805500       3.77702200
N       -1.82859500      -0.06515100       2.31240200
H       -0.84317700       0.02520200       1.98997900
H       -2.17934500      -0.88249200       1.79364200
H       -1.49023100       0.63025400       4.26573200
H       -2.95122200      -0.37815700       4.06691700
H       -1.31897000      -1.11794400       4.06253800
H       -2.34014500       0.77728700       1.98529600
C       -0.45121800       1.53738000      -3.47919300
N       -0.39024400       0.46095000      -2.46789800
H       -1.10957500      -0.26522300      -2.58154600
H        0.51908800      -0.02774500      -2.45791200
H       -1.40250600       2.05872400      -3.37456800
H        0.37356700       2.22526000      -3.29604800
H       -0.35912800       1.10683200      -4.47610700
H       -0.53554000       0.85676200      -1.51123600
C        0.75724100      -4.04954900      -0.71315300
N        0.77727700      -2.72069100      -0.06847400
H        1.15375800      -2.00561100      -0.70965900
H       -0.17538700      -2.43438500       0.20654800
H        1.76764200      -4.30953500      -1.02710300
H        0.38694400      -4.78599100      -0.00067300
H        0.09454400      -4.00619100      -1.57714700
H        1.36770300      -2.67865000       0.78613600
C        1.36350000       3.88103500       0.93353400
N        1.54116600       2.42280100       0.75450200
H        2.09807800       1.97371100       1.49098200
H        0.61864800       1.94520100       0.70721300
H        2.32658000       4.38110800       0.83473100
H        0.66121500       4.23879300       0.17996200
H        0.94691400       4.06881800       1.92272400
H        1.99850600       2.18235400      -0.14393700
56
4sa4ma-46
S       -2.71730000      -1.51335600       1.15283600
O       -3.27761200      -1.26633700      -0.19176100
O       -3.50492100      -2.34345400       2.03678600
O       -1.27444000      -1.93405600       1.06042800
O       -2.64378800      -0.07721900       1.90807800
H       -2.29890700       0.64997600       1.33455500
H       -0.49648800      -2.62367300      -0.26445200
S        2.81362000      -1.48509200       0.28382200
O        1.49101700      -0.82024600       0.51338000
O        2.66689800      -2.94413400       0.19231300
O        3.32090900      -0.94773700      -1.14855400
O        3.82909200      -0.96616700       1.20126100
H        3.56323100       1.01148900       0.59688400
H        2.60956400      -1.05463300      -1.82764100
S        0.34805700       0.23661700      -2.42604300
O        1.23685500       1.37913900      -2.08407700
O        1.12030200      -0.99759700      -2.72541200
O       -0.45994200      -0.08519800      -1.07673200
O       -0.70917900       0.55382300      -3.38224200
H       -2.32389000       0.90014700      -2.47621200
H        0.19934200      -0.34337100      -0.37665100
S       -0.50484500       2.87505700       0.87463100
O       -1.74645100       2.10903800       0.56502100
O       -0.70360900       4.10289600       1.60621100
O        0.51867400       1.94847700       1.46883000
O        0.11789500       3.32410200      -0.53627200
H        0.40153800       2.56054000      -1.09759200
H        0.21292100       0.52131600       2.38101900
N        0.03793000      -0.35567100       2.91644800
H       -0.20450500      -1.07741800       2.20779900
H       -0.81423300      -0.21205700       3.45976900
C        1.20167500      -0.72836700       3.75012800
H        2.07137600      -0.83657600       3.10267200
H        1.38044900       0.05590200       4.48566600
H        0.99547400      -1.67200700       4.25453400
N        0.08518900      -3.14214800      -0.96492200
H        1.00467400      -3.30925700      -0.51499900
H        0.27128500      -2.51008900      -1.75634400
C       -0.59108900      -4.38842900      -1.38246200
H       -0.75815300      -5.00773300      -0.50194600
H       -1.54987900      -4.13591900      -1.83427400
H        0.03265300      -4.92122000      -2.09967000
N        2.95124000       1.73470000       0.19482300
H        2.08100300       1.77475800       0.76854800
H        2.63917700       1.40074100      -0.72994900
C        3.58762100       3.06748800       0.10544700
H        3.88405600       3.38814800       1.10350700
H        4.46051700       3.00897800      -0.54363300
H        2.85967900       3.76829400      -0.30274700
N       -2.96513500       1.01357400      -1.67656500
H       -2.48093000       1.60998800      -0.98171300
H       -3.04964300       0.08595300      -1.20417200
C       -4.28501900       1.55843100      -2.05205600
H       -4.15783100       2.54209600      -2.50339300
H       -4.76365100       0.88354600      -2.76096100
H       -4.89863400       1.63993200      -1.15544100
56
4sa4ma-8
S       -4.64893400       0.16105600       0.03558200
O       -4.60411700      -0.52501300       1.32447400
O       -4.17402100       1.56007100       0.05182200
O       -4.05051900      -0.64235300      -1.06568900
O       -6.19960700       0.24271900      -0.43391900
H       -6.67158400       0.81531700       0.18628200
S        4.56218100      -0.04884500      -0.21692400
O        4.29820400      -1.49968700      -0.25365700
O        4.38816900       0.63887000      -1.50162700
O        3.89699200       0.65493300       0.90878800
O        6.12574000       0.08734200       0.19418400
H        6.64188000      -0.46913800      -0.40513500
S       -0.87808000       1.67494000       0.86155000
O       -0.65177400       2.09867100      -0.55639600
O       -1.25642600       0.25319400       0.94655400
O        0.26938100       2.03159500       1.71462800
O       -2.09132300       2.52440600       1.41090100
H       -2.92627600       2.19578500       0.97604900
S        0.95115100      -1.80491000      -0.74552200
O        1.28986500      -0.37487800      -0.81034600
O        0.78920700      -2.29590500       0.64664900
O       -0.23633700      -2.16505700      -1.56870500
O        2.14134700      -2.60898500      -1.41527800
H        2.99427000      -2.24831300      -1.05351800
C       -2.53849900      -3.25303600       1.46952500
N       -2.26803400      -2.26770000       0.40425600
H       -3.11441100      -1.99466300      -0.11772500
H       -1.90585400      -1.38028800       0.79096600
H       -2.93283100      -4.16626500       1.02462700
H       -1.60332700      -3.46737400       1.98567000
H       -3.27057400      -2.82373900       2.15265500
H       -1.55356300      -2.57713600      -0.27373200
C        2.50458600       3.64704500      -0.73207400
N        2.15738400       2.21241800      -0.73961000
H        1.13308500       2.06503200      -0.80239100
H        2.64832100       1.68652500      -1.47347000
H        1.99275100       4.12010100       0.10529600
H        3.58402300       3.74882200      -0.62363500
H        2.17814800       4.10163200      -1.66698100
H        2.48651000       1.75363000       0.12064700
C       -1.71127100       0.55886800      -3.67254300
N       -1.66458000       0.15236200      -2.25466800
H       -1.08610900      -0.69803000      -2.11260900
H       -1.25839300       0.89873600      -1.65274500
H       -2.16309000      -0.23817500      -4.26255300
H       -2.30710800       1.46668400      -3.76453500
H       -0.69686000       0.74362200      -4.02591700
H       -2.61152500      -0.05357300      -1.88046300
C        1.87882200      -0.70672600       3.73829800
N        1.71699200      -0.30914400       2.32720200
H        1.29254700      -1.06895300       1.75300000
H        1.11980600       0.53150400       2.22189000
H        2.50155800      -1.59968000       3.78857100
H        2.35329100       0.10379300       4.29114100
H        0.89870100      -0.91602300       4.16664100
H        2.62311600      -0.07751200       1.87841100
