11
1sa1am-67
S       -0.61082600      -0.11428400       0.09404400
O        0.41430200      -0.41515200      -1.04911100
O       -1.78323100      -0.92646900      -0.12067700
O       -1.02102400       1.42265000      -0.19626400
O        0.07878200      -0.07526500       1.36469200
H       -1.73193800       1.43191300      -0.85226200
H        1.38306000      -0.21352200      -0.72294800
N        2.77351400       0.04100500      -0.05232900
H        3.40121800      -0.75401400      -0.11877900
H        2.51941300       0.16382700       0.92574200
H        3.27623200       0.86719300      -0.35927100
11
1sa1am-9
S       -0.61000900      -0.11633300       0.09321700
O        0.07968200      -0.00195900       1.36398100
O       -1.71819200      -1.02147700      -0.10661100
O       -1.15322400       1.37694400      -0.23673900
O        0.44350500      -0.33226100      -1.04015400
H        1.40348100      -0.15860200      -0.67801700
H       -2.00247900       1.29109700      -0.69188600
N        2.81975800       0.04176800      -0.04794700
H        2.66601300       0.29445200       0.92856000
H        3.37043900       0.77970100      -0.47745800
H        3.37021800      -0.80767300      -0.08085600
11
1sa1am-4
S        0.61234400      -0.11331700       0.09630100
O       -0.08527800      -0.09272100       1.36344900
O        1.82228600      -0.86957100      -0.10970900
O       -0.39242800      -0.47625200      -1.04965500
O        0.94500700       1.44234100      -0.20322800
H        1.62609000       1.48294400      -0.88979600
N       -2.75255100       0.03679100      -0.05536300
H       -1.36351300      -0.26350400      -0.74463300
H       -3.45954800      -0.68364500      -0.16815000
H       -2.47228600       0.05796300       0.92418100
H       -3.17707500       0.93139600      -0.28173500
