41
3sa1ma1tma-24
S        0.95540700      -0.78851800       2.06001500
O        0.43376600       0.08170100       0.92779400
O       -0.16455800      -1.17487200       2.93096200
O        1.47716500      -2.09700400       1.29953500
O        2.13789100      -0.23200000       2.69349100
H        1.68113600       0.50487900      -0.30229800
H        0.78632100      -2.39578600       0.65859900
S       -1.54563700       2.46956400      -0.17984600
O       -2.57479500       1.52306400       0.24659900
O       -1.89251200       3.83096500      -0.46619400
O       -0.39834200       2.50076900       0.90335200
O       -0.81222000       1.85337900      -1.44142200
H       -1.04103500       0.88221900      -1.57176800
H       -0.08059300       1.55989600       1.07862200
S       -0.36407200      -1.73463900      -1.71446800
O        1.01852300      -1.32102200      -1.95213700
O       -0.51910500      -2.58058200      -0.49627500
O       -1.37308300      -0.66213900      -1.76970400
O       -0.80737800      -2.67528900      -2.95150400
H       -0.19371700      -3.42103700      -3.00710000
C       -3.70299400      -1.58978400       1.52050400
N       -2.34141000      -1.12846300       1.18174700
H       -1.87351100      -1.74367800       0.49714800
H       -2.35897100      -0.17781400       0.77279400
H       -3.64761200      -2.58810700       1.95361800
H       -4.14370200      -0.89870000       2.23809800
H       -4.30659100      -1.61014900       0.61375600
H       -1.70197200      -1.10536800       1.99992800
N        2.57510900       0.93379100      -0.61831100
C        2.86291200       2.03614900       0.33955000
C        3.60167900      -0.14050800      -0.53733200
C        2.39934300       1.43910400      -2.00451500
H        3.28646600      -0.96039800      -1.18078800
H        4.56086800       0.26863900      -0.86153800
H        3.65936200      -0.48436800       0.49579600
H        2.06053200       2.77162200       0.27667400
H        2.90092000       1.61499200       1.34536500
H        3.81898100       2.49062600       0.07229100
H        1.57953400       2.15722600      -2.01040800
H        3.33043400       1.91296400      -2.32236100
H        2.14762800       0.59699300      -2.64694200
41
3sa1ma1tma-31
S       -1.94168200       2.13811100      -0.13951400
O       -2.10683800       1.20957600       1.13073800
O       -3.17050800       2.85834700      -0.30998100
O       -0.66147500       2.82379700      -0.05360600
O       -1.85106700       1.08281900      -1.32679900
H       -0.93287300       0.64832800      -1.32022700
H        1.42269200       0.95327800       0.03464700
S        0.29399800      -1.17444400       2.12123600
O       -0.96476700      -1.85396900       1.76553600
O        1.50883200      -1.70794800       1.50229900
O        0.18009500       0.30476300       2.00948200
O        0.53873200      -1.48341500       3.68746800
H       -0.27300500      -1.28127000       4.17323700
H       -1.21697000       0.89408300       1.47755200
S        0.87829700      -1.19402000      -1.99725900
O        0.33873700      -0.17360300      -1.01076900
O        1.62468200      -0.59922800      -3.08837200
O        1.95662900      -2.00193800      -1.13614200
O       -0.20622400      -2.12478500      -2.36421400
H       -1.57302600      -1.96832400      -1.35258700
H        1.69850700      -2.01745500      -0.18223200
N       -2.31156400      -1.73554700      -0.64664600
H       -2.61681700      -0.77825700      -0.84802900
H       -1.83068600      -1.71865300       0.27631100
C       -3.42679600      -2.70555300      -0.65901400
H       -3.88969000      -2.71116500      -1.64532900
H       -3.02986400      -3.69461400      -0.43372100
H       -4.15992500      -2.42290500       0.09581500
N        2.27516800       1.54229300       0.06123600
C        3.43269600       0.61355000       0.16507600
C        2.29101000       2.29409800      -1.22448500
C        2.19771800       2.44975000       1.23526800
H        1.40056900       2.92066000      -1.26202000
H        3.19691400       2.90273300      -1.25921800
H        2.27683800       1.57608700      -2.04607000
H        3.30347600      -0.00335600       1.05439100
H        3.45215100      -0.02683300      -0.71648800
H        4.34797500       1.20532300       0.22862900
H        2.15040400       1.84293100       2.13779700
H        3.08531400       3.08589200       1.23775300
H        1.29059600       3.04554700       1.15006300
41
3sa1ma1tma-15
S        2.58181400       1.44080600      -0.07176700
O        2.94556200       0.04523300      -0.29842100
O        3.57250900       2.47105600      -0.17675700
O        1.39652900       1.80464200      -1.05650100
O        1.93234200       1.57963700       1.36117200
H        1.21276600       0.91208900       1.54894100
H        0.79294900       1.00840500      -1.20937700
S       -0.64959400      -1.16320800       2.07608500
O        0.42654500      -2.13445100       1.83163600
O       -0.24932900       0.25100900       1.91376900
O       -1.91585500      -1.48720800       1.39638000
O       -0.96869100      -1.23082200       3.66134100
H       -1.21801800      -2.13853500       3.88471000
H       -2.25294500      -1.40316200      -0.28765600
S       -1.16100900      -0.82512900      -2.05001400
O       -2.49259200      -1.12845900      -1.20759500
O       -0.29528900      -0.08814900      -1.04448700
O       -0.52837800      -2.11062600      -2.38698800
O       -1.60041400       0.00507400      -3.15467400
C        2.56838600      -3.51898700      -0.84201300
N        1.61875300      -2.40232200      -0.66537100
H        0.86701900      -2.39209300      -1.38577100
H        1.15026700      -2.42600700       0.25914700
H        3.04077900      -3.43684400      -1.82044100
H        3.32746500      -3.47031900      -0.06180800
H        2.02789600      -4.46268700      -0.77421900
H        2.09375000      -1.48701800      -0.69348700
N       -1.73984700       2.07964200       0.09735500
C       -1.12681900       2.99379700       1.09677900
C       -1.81179800       2.71521600      -1.24804000
C       -3.07007500       1.58551600       0.54338500
H       -2.15660700       1.97798300      -1.97430600
H       -2.49801100       3.56254100      -1.19428100
H       -0.81279700       3.05330800      -1.52330400
H       -1.08033300       2.48013000       2.05517600
H       -0.11853000       3.24443000       0.76817200
H       -1.74155200       3.89364200       1.16356500
H       -2.94024400       1.04208000       1.47867200
H       -3.73318900       2.44212900       0.67917600
H       -3.45929500       0.90912500      -0.21743000
H       -1.13476600       1.24131300       0.00009700
