73
4sa2dma1tma1eda-9
S        3.61146300      -1.20807700      -0.75099100
O        3.86916100       0.24285600      -1.37527900
O        3.60048800      -2.09593700      -1.93057500
O        2.21944600      -1.11922500      -0.17531900
O        4.60325500      -1.48591300       0.27707200
H        0.82441800      -2.31544800      -1.01192400
H        3.71891100       0.94057800      -0.68196700
S       -2.44052300       1.43539200      -0.19324600
O       -1.93698300       0.11329400      -0.78337600
O       -2.26312300       2.50286500      -1.21896200
O       -3.86265300       1.25133100       0.19971500
O       -1.59905800       1.76435400       1.01452400
H       -0.09241900       1.54109900       0.92900300
S        1.76656800       2.56449900       0.33617700
O        1.33543700       2.77125200      -1.07123200
O        0.90275200       1.31968400       0.88118000
O        3.15191600       2.08885700       0.47212300
O        1.41463800       3.72083100       1.18238800
H       -0.11819700       4.27217000       0.48060000
S       -1.36174100      -3.15030700       0.42509200
O       -0.36658600      -4.06222600       0.98196700
O       -1.71157900      -3.40402500      -0.98878200
O       -2.54598100      -2.90002800       1.27809400
O       -0.54723100      -1.72693900       0.40180100
H       -1.15332000      -0.99814000       0.07509900
N       -0.94744900       4.58475000      -0.06366500
H       -1.34192100       3.73680600      -0.54352000
C       -1.98117700       5.09332200       0.86067300
H       -2.24276400       4.28623500       1.54541400
H       -1.58816600       5.94987800       1.41095800
H       -2.86079700       5.38507000       0.28511100
C       -0.49328000       5.54717500      -1.08715600
H       -0.09269200       6.43599200      -0.59691500
H        0.28732200       5.06334100      -1.67418600
H       -1.33716000       5.81727700      -1.72389400
C       -4.63029700      -1.73213000      -1.24618200
N       -4.52584700      -1.36143700       0.18115500
C       -5.75441900      -1.59566400       0.96307000
H       -3.74417200      -1.91090100       0.60656600
H       -5.44347000      -1.16527200      -1.70282400
H       -3.68314500      -1.48110800      -1.72119800
H       -4.81194600      -2.80442200      -1.32885600
H       -6.56698600      -0.99822900       0.54651600
H       -6.01144800      -2.65552900       0.92639400
H       -5.57370100      -1.29802900       1.99591500
H       -4.26018400      -0.34296400       0.23787500
N        1.79294600      -1.01891500       2.52106700
C        2.93871600      -0.18411700       2.96888800
C        0.54029700      -0.68410300       3.24195300
C        2.10702900      -2.47068100       2.60492900
H       -0.27142500      -1.27733300       2.82331000
H        0.67800100      -0.91269800       4.30109900
H        0.33131000       0.37547400       3.10336900
H        3.80548100      -0.43784400       2.35712900
H        2.68527200       0.86469600       2.82175900
H        3.13332400      -0.39470300       4.02286400
H        3.01948700      -2.65241800       2.03641600
H        2.25356100      -2.73461600       3.65474000
H        1.27653700      -3.03662200       2.17819300
H        1.67311300      -0.81673800       1.51073900
C        0.20063400      -1.91682300      -2.96798600
N        0.89904400      -2.74889000      -1.94988400
C        0.78695600      -0.51587100      -3.08759400
N        0.55363400       0.27680300      -1.86520700
H        1.92346100      -2.81154900      -2.12401100
H        0.44271400      -3.66069000      -1.87166700
H        0.29213300      -2.42516300      -3.92940200
H       -0.85199600      -1.89364200      -2.67615900
H        0.29802900      -0.01295700      -3.92407500
H        1.86349200      -0.54687100      -3.27412700
H       -0.45477200       0.29846200      -1.57780500
H        0.88280600       1.26031700      -1.91677100
H        1.09478800      -0.12869300      -1.07281300
73
4sa2dma1tma1eda-7
S        3.86573300       0.52266100      -0.50590900
O        3.45811700       2.01269400      -0.91280700
O        4.38943700      -0.05883800      -1.74497900
O        2.53456600      -0.13430500      -0.15847600
O        4.74037300       0.55236800       0.65830100
H        2.22547000      -1.35249000      -1.26247600
H        2.96501200       2.45158200      -0.16734500
S       -2.80489800       0.34970400      -0.64993900
O       -1.74924300      -0.60494000      -1.20535100
O       -2.88101200       1.54093600      -1.54112900
O       -4.10043800      -0.37344900      -0.55460200
O       -2.35278100       0.78104200       0.72923400
H       -0.87165200       1.16903700       0.86176700
S        0.44268800       2.92052300       0.66643500
O        0.14138900       3.14722400      -0.76827600
O        0.12636800       1.36341000       0.94266800
O        1.87131300       3.02925500       1.00320700
O       -0.46120400       3.69122100       1.54256100
H       -1.96445500       3.74964200       0.63072300
S        0.03989300      -3.49968800       0.01129000
O        1.27460200      -3.97311500      -0.64583700
O       -1.18557100      -3.80273300      -0.76446600
O       -0.04979000      -3.81871500       1.43726500
O        0.18046500      -1.87329500      -0.05555300
H       -0.66911900      -1.44754900      -0.37653000
N       -2.76306300       3.79110800      -0.03542800
H       -2.69631500       2.93319400      -0.64009900
C       -4.03587200       3.71511800       0.70902600
H       -4.03676500       2.78321200       1.27497000
H       -4.11686600       4.57069200       1.38170800
H       -4.86453700       3.71312000      -0.00061000
C       -2.60224600       4.98942800      -0.88271000
H       -2.67415100       5.88476400      -0.26290800
H       -1.61774200       4.93680300      -1.34757800
H       -3.38317200       4.99680300      -1.64476700
C       -3.17330200      -2.57760600       1.68167000
N       -3.52848900      -2.86362800       0.27222800
C       -4.54134300      -3.92220700       0.10522700
H       -3.84616700      -1.95688300      -0.15920600
H       -2.63736700      -3.43071300       2.09967900
H       -2.53629000      -1.69168600       1.69804400
H       -4.08520100      -2.36943300       2.24352600
H       -4.17150400      -4.84734500       0.55017700
H       -5.46862600      -3.61657700       0.59244800
H       -4.71827400      -4.07413800      -0.95946700
H       -2.65481300      -3.15501000      -0.22203400
N        1.81428500      -0.60371100       2.46383800
C        2.46543900       0.56261100       3.11906600
C        0.49315200      -0.91490100       3.06506200
C        2.70833500      -1.79191500       2.45821400
H        0.07590100      -1.78430500       2.55591500
H        0.64220100      -1.13502800       4.12470600
H       -0.15225900      -0.04599100       2.94378200
H        3.40115600       0.77038400       2.59851200
H        1.80506600       1.42410300       3.03476000
H        2.65018200       0.31231400       4.16607900
H        3.63586200      -1.51695000       1.95611500
H        2.90519900      -2.08336500       3.49213200
H        2.20779500      -2.60527500       1.93254000
H        1.68680800      -0.33844500       1.47028400
C        1.19866600      -1.40526000      -3.09982300
N        2.21142900      -1.92360800      -2.14287400
C        1.16285600       0.12006900      -3.14330700
N        0.55035500       0.67305200      -1.91666900
H        3.16565000      -1.84078700      -2.50022800
H        1.98146100      -2.88697200      -1.81609500
H        1.43501700      -1.79407100      -4.09158100
H        0.22702800      -1.80453500      -2.79800100
H        0.55707400       0.43202900      -3.99577900
H        2.16736600       0.53959900      -3.24575500
H       -0.40290600       0.27261500      -1.74078100
H        0.46346000       1.70346900      -1.89417800
H        1.13734400       0.44839200      -1.08878900
73
4sa2dma1tma1eda-46
S       -3.83852200      -1.18952600      -0.36151100
O       -3.04726100      -2.54833400      -0.67574200
O       -4.47987500      -0.84219700      -1.63214300
O       -2.73208000      -0.19386900      -0.05890600
O       -4.69181500      -1.38716200       0.80341400
H       -2.65813300       0.97867200      -1.20310400
H       -2.46191700      -2.78650500       0.08891300
S       -0.38797900       3.06459600      -0.24799700
O        0.07926400       3.71098800       1.00407700
O       -0.66443500       1.62347500      -0.05270700
O       -1.51475500       3.76660100      -0.89375800
O        0.84592500       3.15019400      -1.25155200
H        1.17173800       2.22170600      -1.53664900
S        0.15099200      -2.61595700       0.85144600
O        1.23535800      -3.08317200       1.74006900
O        0.42305300      -2.93292900      -0.56916500
O       -1.20548400      -2.97113900       1.29886300
O        0.14139000      -1.00525900       0.94905600
H        1.01749700      -0.60204800       0.63973700
S        2.82802300       0.25545400      -1.23596900
O        2.38443700       0.09849900       0.23365400
O        3.97181200       1.16991500      -1.27673200
O        3.08483900      -1.10067700      -1.79200700
O        1.63592900       0.85016900      -1.98813800
C        3.38368800      -4.35886300      -0.71261300
N        3.39812200      -3.05783600      -0.01508500
C        4.69229800      -2.68571300       0.58644700
H        3.14433700      -2.30042300      -0.70611100
H        3.65702700      -5.15128900      -0.01352900
H        2.37293700      -4.52201900      -1.08633700
H        4.09260800      -4.32739900      -1.54149400
H        4.97442400      -3.42250100       1.34072700
H        5.44957800      -2.63784000      -0.19732900
H        4.58253300      -1.70067700       1.04087700
H        2.65523300      -3.06296300       0.71328900
C        3.56100700       3.50534200       0.64126400
N        2.61375100       2.60999600       1.34810600
C        2.97549200       2.34122300       2.75266600
H        1.66278500       3.03874000       1.30046600
H        4.52800600       3.01044700       0.56322100
H        3.17067500       3.68720300      -0.35813800
H        3.63676800       4.44197400       1.19681900
H        3.97115600       1.89683800       2.78559800
H        2.96482400       3.27405100       3.31864300
H        2.25449400       1.64147500       3.17606500
H        2.54721600       1.68301300       0.85359800
N       -1.92910500       0.55388600       2.46215900
C       -0.68255600       1.05514500       3.08697900
C       -2.96675400       1.61336200       2.38448600
C       -2.44586200      -0.66078500       3.15001500
H       -3.83971800       1.19653400       1.88377400
H       -3.22105500       1.93001200       3.39826400
H       -2.56754500       2.45216500       1.81451300
H        0.06274500       0.26231600       3.02971900
H       -0.35027400       1.93490800       2.53426400
H       -0.89462800       1.31314800       4.12730700
H       -1.68958300      -1.44269600       3.09426800
H       -2.67022900      -0.40102400       4.18706200
H       -3.34474800      -0.99602100       2.63012600
H       -1.72474300       0.27985000       1.48391200
C       -1.43646600      -0.37235600      -3.03412700
N       -0.59163300      -0.67673500      -1.86086800
C       -1.74767400       1.11786900      -3.11159900
N       -2.73270400       1.56073800      -2.08142400
H       -0.34053100      -1.67337300      -1.76648700
H       -1.08038900      -0.43850200      -0.98310600
H       -0.88020500      -0.65561000      -3.92952000
H       -2.35092200      -0.96800400      -2.97506600
H       -2.15525800       1.35529000      -4.09523400
H       -0.83944400       1.70795300      -2.97130000
H       -3.69437000       1.42946800      -2.39552100
H       -2.53477400       2.53899300      -1.78892400
H        0.30320800      -0.12142900      -1.88640700
