38
1msa1fa2eda-431
S        2.16350100       1.04684400      -0.32477400
O        1.05901400       2.04967000      -0.35360500
O        2.02513000       0.02666800      -1.39915900
O        2.34556000       0.45014000       1.01862800
H       -0.31484200      -1.02378800       0.16231400
C        3.64962100       1.95850200      -0.69741200
H        3.53069900       2.41628600      -1.67935900
H        3.78245500       2.71883300       0.07234000
H        4.48361000       1.25654500      -0.69566900
H       -4.49311800      -1.23075500      -1.51602600
H       -2.05602900       0.81574900      -0.67061600
C       -3.88635600      -0.41131200      -1.08223500
O       -2.62684300      -0.46896700      -1.33767400
O       -4.43881700       0.46453100      -0.41177400
H        2.27414900      -2.70935700      -0.60085500
H        1.67938500      -4.17322800       0.19196100
H        0.12627600      -3.42616800      -1.56557400
H       -0.64109900      -3.38613100       0.03925500
H        0.55876300      -0.99761000      -1.25508700
H       -1.11449200      -1.36458900      -1.24142600
H        2.14824200      -2.95472500       2.01684300
H        1.89306300      -1.50305000       1.31184100
C        1.50196600      -3.09941600       0.07727300
C        0.13754700      -2.94158300      -0.58561700
N        1.52996200      -2.45522700       1.38929800
N       -0.20192600      -1.51301100      -0.77073900
H       -1.38134100       2.56657600       1.67819100
H       -3.06459200       2.11860100       1.27802300
H       -2.07330900       0.65520600       3.00287000
H       -2.66297100      -0.20369000       1.57256300
H        0.21019000       0.46101600       1.86607500
H       -0.43901100      -0.98119900       2.26319000
H       -2.03712000       2.49724000      -0.72730600
H       -0.61175300       1.73897400      -0.32615300
C       -2.02133800       1.80520300       1.22254200
C       -1.88066600       0.46856600       1.93726600
N       -1.64971300       1.70935700      -0.21282300
N       -0.58263100      -0.15487900       1.68808600
38
1msa1fa2eda-430
S        2.31970000      -0.25033700      -0.46822800
O        2.21330900       0.81694200       0.54811100
O        1.59018700       0.06119600      -1.72629600
O        1.93458300      -1.59585700       0.05936700
H        0.32020700      -2.00821300      -0.23106900
C        4.04461300      -0.38276600      -0.90267200
H        4.36794900       0.57922500      -1.30077200
H        4.60218800      -0.63373000      -0.00011000
H        4.14922400      -1.16542100      -1.65405900
H       -4.65353900      -0.59697200      -1.60543000
H       -1.75345200       1.12430700      -1.08462700
C       -3.60020500      -0.35323900      -1.36419500
O       -3.26334600       0.84849600      -1.48152700
O       -2.87881200      -1.32072700      -0.99782600
H       -2.01041200      -2.95410200       1.32780900
H       -0.36580500      -3.60234400       1.54328400
H       -0.82779200      -1.83263200       3.19477900
H        0.50519000      -1.38662200       2.11126600
H       -2.23805400      -0.37558300       1.79604900
H       -0.88556800       0.50577100       2.19837300
H       -0.71216700      -3.22308900      -0.74361000
H       -1.40365300      -1.73053500      -0.52661500
C       -0.94428000      -2.71956100       1.26129500
C       -0.57563200      -1.54682100       2.16262900
N       -0.65445800      -2.39176200      -0.15936900
N       -1.22736100      -0.32673900       1.71194400
H        0.78569900       2.62231900      -0.64681400
H       -0.74855400       3.22146800      -1.31128500
H       -0.36468500       4.23499300       0.82927600
H       -1.75596500       3.15478300       0.97147700
H        0.90683500       2.12755400       1.66533900
H        0.01137700       2.96402800       2.77073600
H       -0.08870300       0.73440600      -1.34388400
H       -0.75533000       0.66685900       0.17075900
C       -0.29997600       2.61234800      -0.52340400
C       -0.66718100       3.17775300       0.84021800
N       -0.75346600       1.21441000      -0.71614000
N       -0.03779900       2.41441000       1.92112500
38
1msa1fa2eda-428
S       -2.63826100       0.19011900      -0.17152200
O       -2.03806900      -0.82695200      -1.07579300
O       -2.23652700       1.57213000      -0.51456200
O       -2.39991900      -0.13967700       1.26649700
H       -0.67057200      -0.07505300       1.50854800
C       -4.40516400       0.09180500      -0.40315700
H       -4.62005700       0.31859500      -1.44760400
H       -4.72819500      -0.91888200      -0.15311800
H       -4.87437100       0.82237300       0.25593700
H        4.36059000      -0.66082100      -1.54440000
H        1.75979800      -1.86429300      -1.03977200
C        3.46781600      -0.86712600      -0.93444800
O        2.62427100      -1.63799300      -1.56850200
O        3.33240700      -0.40540800       0.18567700
H        1.89409100      -1.56704600       1.60846800
H        0.59488300      -1.67668900       2.82454400
H        0.53598300      -3.57330500       1.22582900
H       -0.95729300      -2.61454200       1.17685700
H        0.16932700      -3.26287600      -0.99511300
H       -0.41701200      -1.76030600      -0.84010400
H        0.89352800       0.58794900       1.80867700
H        0.54378500       0.03967800       0.35135400
C        0.81471500      -1.53327200       1.76343200
C        0.11358600      -2.60578800       0.93993300
N        0.35771700      -0.18724600       1.36786200
N        0.32657600      -2.38793700      -0.50197400
H        0.43009500       3.18048100       0.61232400
H        2.01785500       3.89636900       0.30658800
H        1.32039600       3.03839200      -1.73886900
H        2.57528700       1.93786700      -1.16500900
H       -0.32519600       1.41734300      -1.09756900
H        0.80941000       0.62141000      -1.96674100
H        2.85975100       1.62417300       1.16374000
H        2.25005800       2.67181400       2.27120300
C        1.47609100       2.94330300       0.38450800
C        1.54633100       2.27048600      -0.98507800
N        2.01198000       2.10027400       1.46796500
N        0.65408100       1.11522700      -1.09372400
