29
2msa1am1ma-01
S        2.55641400      -0.24001200      -0.10396600
O        2.39529900       0.91259000      -1.02882700
O        2.35741400      -1.56183200      -0.75976000
O        1.70507300      -0.09905700       1.10942600
C        4.25656300      -0.20934000       0.43100500
H        4.88845300      -0.32213200      -0.45006000
H        4.44261100       0.74763100       0.91862400
H        4.41211100      -1.03414800       1.12645800
S       -2.55640400      -0.24003400      -0.10396400
O       -2.35742300      -1.56185500      -0.75976000
O       -2.39524900       0.91256800      -1.02882100
O       -1.70507900      -0.09909700       1.10944000
C       -4.25656100      -0.20932600       0.43098000
H       -4.88844100      -0.32212000      -0.45009200
H       -4.41213100      -1.03412200       1.12644100
H       -4.44260100       0.74765500       0.91858400
N        0.00000500      -2.35857500       0.35866800
H        0.87230500      -2.21870800      -0.20601200
H        0.00003400      -3.26711600       0.81199600
H       -0.00001000      -1.60630600       1.05973300
H       -0.87230900      -2.21874900      -0.20599700
N        0.00001400       1.93083600      -0.11660100
H       -0.85828900       1.68546800      -0.65474900
H        0.00006900       1.27659800       0.67775200
C       -0.00007200       3.33519800       0.33173100
H        0.89267200       3.51979700       0.92894400
H       -0.00010300       3.99019600      -0.53925900
H       -0.89285300       3.51968700       0.92892300
H        0.85832600       1.68556200      -0.65477000
29
2msa1am1ma-02
S       -2.66208200      -0.18809300      -0.16610700
O       -2.26577300      -1.31375800      -1.03407300
O       -2.55504000       1.14946100      -0.81106400
O       -1.93266100      -0.22106500       1.14449700
C       -4.39140600      -0.39050400       0.21564000
H       -4.94709800      -0.34712300      -0.72124000
H       -4.52417300      -1.35929500       0.69734200
H       -4.69300800       0.41747300       0.88208100
S        2.70141300      -0.15225300       0.00849000
O        2.98331400       1.15376600       0.61743100
O        1.53226800      -0.10221100      -0.93504200
O        2.52243400      -1.27268100       0.97719700
C        4.11575100      -0.59315900      -0.98502800
H        4.26543800       0.18744500      -1.73114900
H        4.97898500      -0.66122600      -0.32249900
H        3.92048200      -1.55287400      -1.46333500
N       -0.02988800      -2.10600500       0.60423700
H       -0.69758700      -1.41869200       1.02801300
H       -0.25922900      -3.04851300       0.90505200
H       -0.19395600      -2.01560200      -0.40247600
H        0.96987200      -1.85490000       0.82155400
N       -0.02968000       2.08108900      -0.49407700
H       -1.01404200       1.80738100      -0.73810400
H        0.58538600       1.25164800      -0.70104800
C        0.05194200       2.43437300       0.94666500
H        1.10096000       2.52146700       1.22791800
H       -0.48842100       3.36540200       1.11887900
H       -0.42580300       1.62743800       1.50304300
H        0.27580400       2.84756700      -1.08851500
29
2msa1am1ma-03
S       -2.72799600      -0.17776600       0.09530300
O       -2.60806600       1.10623800       0.83338000
O       -2.67981200      -1.38538500       0.93941200
O       -1.71290200      -0.24634500      -1.01660600
C       -4.32446700      -0.14742000      -0.69666400
H       -4.44493800      -1.07461300      -1.25694000
H       -5.08185500      -0.06914000       0.08359000
H       -4.36396100       0.71556800      -1.36120100
S        2.66316200      -0.29773600      -0.13321400
O        2.62929900       0.90219600      -0.98434100
O        2.55523100      -1.59286400      -0.83080500
O        1.61236100      -0.19968400       0.96268700
C        4.22729500      -0.29653800       0.72421300
H        5.01388900      -0.38003800      -0.02628800
H        4.31925600       0.64063100       1.27315000
H        4.25102600      -1.14835300       1.40369900
N       -0.07593000      -2.15640900       0.04597600
H        0.48648600      -1.51212300       0.64500000
H       -0.63348800      -1.53785400      -0.58742800
H        0.59785900      -2.71874900      -0.47360900
H       -0.74780300      -2.69003300       0.59587000
N       -0.05664800       1.81889400       0.07259900
H        0.57646200       1.13973800       0.55218400
H       -0.22306700       1.40576100      -0.84943700
C        0.55284600       3.16113200      -0.01124600
H       -0.10135300       3.82196300      -0.57979400
H        0.68218700       3.55357000       0.99726600
H        1.52075400       3.06094900      -0.50174000
H       -0.98901100       1.78706300       0.53458900
