20
1sa1tma
S        1.51496700      -0.14101400       0.04121700
O        2.67193100      -0.93537600       0.41771900
O        0.48093700      -0.04431400       1.13034700
O        0.87151200      -0.40799800      -1.24852200
H       -0.88070600      -0.01601300       0.51343300
O        2.06142300       1.39759900      -0.12621300
H        2.82837800       1.49121200       0.45349700
N       -1.87238200       0.01064100       0.06541800
C       -1.86251700       1.12530400      -0.91227200
C       -2.83636000       0.23920000       1.16182800
C       -2.07816300      -1.29829900      -0.59891900
H       -2.59841400       1.18471000       1.65030400
H       -2.74750000      -0.57057900       1.88679700
H       -3.85208500       0.27211600       0.75938300
H       -1.62518600       2.04987700      -0.38452200
H       -2.84391600       1.20356800      -1.38747800
H       -1.08252800       0.92168600      -1.64626000
H       -3.06046700      -1.31394200      -1.07847000
H       -2.01503900      -2.08465600       0.15408800
H       -1.27951300      -1.43277000      -1.32863800
33
1sa2tma
S        0.03838400      -0.73818000      -0.01168900
O       -0.80420900      -1.41753200      -0.99477100
O       -0.91528700      -0.16650200       1.12709100
O        0.71416900       0.48251300      -0.61009800
H       -1.82521300       0.09086700       0.71640900
O        1.03664300      -1.55921500       0.68883000
H        2.11237500       0.46822900      -0.26860700
N        3.19514000       0.46523100      -0.03148200
C        3.31200700       0.44597200       1.44429400
C        3.76576100       1.69138400      -0.62138700
C        3.75818400      -0.76199200      -0.63888300
H        3.26837800       2.55839800      -0.18485100
H        3.58734700       1.68186700      -1.69741400
H        4.84002600       1.73900900      -0.42180500
H        2.83554300       1.34197800       1.84445500
H        4.36801000       0.42254700       1.72900200
H        2.78183800      -0.43423800       1.80900300
H        4.83106000      -0.81703100      -0.43283600
H        3.58394200      -0.72912400      -1.71528000
H        3.22928700      -1.61691500      -0.21694000
N       -3.25106500       0.43302900       0.06414000
C       -2.98656200       1.08210100      -1.22049800
C       -4.02392600       1.29790600       0.94897700
C       -3.90802300      -0.86045400      -0.12840300
H       -3.48698900       2.23736800       1.10523700
H       -4.15495200       0.80866200       1.91785000
H       -5.01849100       1.52530800       0.53062100
H       -2.44332600       2.01541300      -1.05076900
H       -3.92280900       1.30534600      -1.75820500
H       -2.36136000       0.42484700      -1.82832300
H       -4.88961200      -0.74523900      -0.61681300
H       -4.05057400      -1.34221700       0.84259000
H       -3.26232800      -1.49563100      -0.73792500
27
2sa1tma
S       -2.35748900      -0.23670100      -0.01683700
O       -1.87494900       0.23913700       1.41771200
O       -1.30519600      -1.08337800      -0.57403300
O       -2.42655900       1.09874400      -0.85338100
O       -3.69384700      -0.73909800       0.11334000
H       -0.90323700       0.45337400       1.37940900
H       -1.52452800       1.51533000      -0.92002600
S        1.14931200       1.59098700      -0.05414700
O        1.74381600       2.78615700       0.86025700
O        0.71969200       0.60751300       0.98524400
O        2.23428000       1.07400600      -0.88398400
O        0.01862500       2.17461900      -0.79502500
H        1.87043100       3.56468100       0.29994400
H        0.94957000      -1.02940300       0.25758800
N        1.45048900      -1.91013100       0.02093700
C        1.46421200      -2.03616300      -1.46218100
C        0.71488300      -3.02625600       0.66816600
C        2.82346900      -1.75358200       0.56904300
H       -0.29814800      -3.04451500       0.26903400
H        0.68272800      -2.84706400       1.74331700
H        1.23712400      -3.96207000       0.45900400
H        0.43428600      -2.09573300      -1.81010700
H        2.02002000      -2.93759000      -1.72928000
H        1.94208300      -1.14593900      -1.87105800
H        3.39487800      -2.65858300       0.35345600
H        2.75206000      -1.59558200       1.64505300
H        3.27787000      -0.88016700       0.10161900
40
2sa2tma
S        1.09650500       1.61439700      -0.56239700
O        1.53322100       0.46817100       0.33424300
O        1.03605600       1.17780500      -1.95965000
O        1.81558000       2.83984200      -0.25775900
H       -1.14746500      -0.79109100      -1.89315800
O       -0.41469100       1.91270300      -0.08046700
H       -0.92657100       1.05960700      -0.13159900
N       -1.07481500      -1.11761800      -2.89479200
C        0.28481700      -1.68429000      -3.09637800
C       -1.31308000       0.06549400      -3.75812600
C       -2.12940500      -2.15252500      -3.04048400
H       -0.55019200       0.81007400      -3.52828500
H       -2.30207500       0.46718500      -3.53443500
H       -1.26158800      -0.23996700      -4.80587100
H        1.01175100      -0.89619100      -2.89899600
H        0.36500700      -2.04660600      -4.12416900
H        0.42591500      -2.49699600      -2.38437600
H       -2.07869000      -2.57770400      -4.04529600
H       -3.10091200      -1.68716700      -2.87326300
H       -1.97174300      -2.91794600      -2.27894600
S       -1.09650500      -1.61439700       0.56239700
O       -1.81558000      -2.83984200       0.25775900
O       -1.03605600      -1.17780500       1.95965000
O       -1.53322100      -0.46817100      -0.33424300
H        1.14746500       0.79109100       1.89315800
O        0.41469100      -1.91270300       0.08046700
H        0.92657100      -1.05960700       0.13159900
N        1.07481500       1.11761800       2.89479200
C        2.12940500       2.15252500       3.04048400
C        1.31308000      -0.06549400       3.75812600
C       -0.28481700       1.68429000       3.09637800
H        2.30207500      -0.46718500       3.53443500
H        0.55019200      -0.81007400       3.52828500
H        1.26158800       0.23996700       4.80587100
H        3.10091200       1.68716700       2.87326300
H        2.07869000       2.57770400       4.04529600
H        1.97174300       2.91794600       2.27894600
H       -0.36500700       2.04660600       4.12416900
H       -1.01175100       0.89619100       2.89899600
H       -0.42591500       2.49699600       2.38437600
34
3sa1tma
S        0.44479500      -0.24042800       1.20727200
O        0.53088500       0.79745800       0.13658000
O        1.62528500      -0.24090300       2.07032300
O        0.43497600      -1.65905900       0.42430100
O       -0.84818900      -0.21096500       1.89764700
H       -1.12210200       1.59185100      -0.27377700
H        1.30558500      -1.74083700      -0.04722700
S        3.74262900      -0.27135300      -0.63051000
O        4.07169500      -0.03600100       0.89823300
O        4.97627900      -0.26234700      -1.35228800
O        2.92763400       1.02521800      -1.04413700
O        2.83484300      -1.41573600      -0.73102700
H        3.24971200      -0.13968200       1.44130000
H        2.01329300       0.98036600      -0.65760600
N       -1.63702000       2.49124600      -0.21792900
C       -2.20780300       2.77714900      -1.56096900
C       -0.64047800       3.51672000       0.18830600
C       -2.69791300       2.32890300       0.81292900
H        0.15291900       3.55304200      -0.55740100
H       -0.21608700       3.23179800       1.14982600
H       -1.13937300       4.48493100       0.25985800
H       -1.39271500       2.83576900      -2.28242900
H       -2.74307600       3.72765400      -1.51943600
H       -2.87551800       1.96111300      -1.83124000
H       -3.19642300       3.28950100       0.95566000
H       -2.23071800       1.99253600       1.73844500
H       -3.40407600       1.57626300       0.46785700
S       -2.94922900      -1.39627400      -0.53719700
O       -2.30015500      -0.17650900      -1.00783900
O       -1.92096300      -2.59001000      -0.67935000
O       -4.19518800      -1.82142700      -1.09982000
H       -1.02949500      -2.30684600      -0.36890300
O       -3.15272600      -1.25749100       1.02935000
H       -2.32174400      -0.90176600       1.44014900
