33
2sa1fa2ma-3
S        0.64576800      -1.44439400       0.55640200
O        2.02136600      -1.87329100       0.81695700
O        0.19153000      -0.37156200       1.49412100
O        0.75249100      -0.73795200      -0.88146100
O       -0.34425100      -2.53049000       0.45577200
H       -1.95641900      -2.37010100      -0.08481500
S       -2.05397900       1.43072400      -0.45711600
O       -3.37345500       1.93053400      -0.76638700
O       -0.94630900       2.39939200      -0.41469200
O       -2.19253300       0.80353500       1.03034000
O       -1.65917400       0.23583500      -1.30572300
H       -1.33322300       0.38510300       1.28953100
H       -0.13126100      -0.34145800      -1.13324700
H        5.25115500      -0.13084100      -1.76113600
H        3.28385100      -1.50852300      -0.21564000
C        4.38390000      -0.18479200      -1.09126500
O        4.07302500      -1.42205600      -0.81775100
O        3.82753400       0.82111300      -0.68125400
N        1.57171300       1.87027900       0.57254700
H        1.21926300       1.12643200       1.19827000
H        2.32394300       1.44050300       0.00416500
C        2.05457600       3.05637900       1.30887300
H        2.42005500       3.79315900       0.59459200
H        1.22916500       3.47870100       1.88123500
H        2.86289300       2.76011800       1.97665100
H        0.74873800       2.10167200      -0.01707500
N       -2.83103300      -2.05232700      -0.56210300
H       -2.54253700      -1.13273900      -0.99074200
C       -3.95736200      -1.86978300       0.38661600
H       -4.83145800      -1.51554400      -0.15880500
H       -4.17262400      -2.81667500       0.88086800
H       -3.65964000      -1.11509500       1.11322700
H       -3.05377200      -2.71293300      -1.30348300
33
2sa1fa2ma-1
S       -2.29453900      -1.31802500      -0.48500500
O       -3.10241100      -0.78858400       0.61941600
O       -1.71777500      -0.24491900      -1.33706500
O       -1.29511000      -2.33548600      -0.11448900
O       -3.38664300      -2.08223500      -1.40168000
H       -2.91990800      -2.55789100      -2.10255100
S        0.93311400       1.58748800      -0.15532100
O        0.28054700       1.09926800       1.11402900
O        0.14574600       2.66311000      -0.75317700
O        2.37024700       1.81885900       0.01763300
O        0.89648600       0.31688600      -1.14351200
H       -0.04766000       0.08290700      -1.33950000
H        5.26775700      -1.41071200      -1.05707600
H        3.54819400       0.81989100      -0.56318100
C        4.38577100      -0.92340400      -0.62271000
O        4.33872200       0.33974200      -0.94028500
O        3.59029500      -1.54044400       0.06845400
N        1.04465900      -1.56164900       1.20581100
H        1.93155400      -1.53657300       0.67018300
H        0.77862200      -0.56983000       1.37166600
C        1.19383400      -2.32015300       2.46349400
H        0.24443200      -2.31317000       2.99856300
H        1.47602800      -3.34704500       2.23343100
H        1.96930500      -1.85497000       3.07143700
H        0.28533300      -1.94926600       0.61714600
N       -2.30226600       1.87261300       0.57099800
H       -1.37360400       1.62563400       0.98176200
H       -2.09957100       1.95232700      -0.42944800
C       -2.84765800       3.12467500       1.13062100
H       -3.79372300       3.36035200       0.64407900
H       -3.00636100       2.99516500       2.20064700
H       -2.12645600       3.92240900       0.95562200
H       -2.90040900       1.03632200       0.69175600
33
2sa1fa2ma-2
S       -0.87458300      -1.57428700       0.20074300
O       -0.35000900      -0.78110200       1.34518300
O       -2.29792400      -1.90927100       0.30706200
O       -0.83747000      -0.58786000      -1.06974100
O        0.02429700      -2.70996200      -0.08965300
H        1.51545000      -2.26642700       0.54793000
S        2.17024600       1.25776700      -0.44571000
O        1.17147600       2.33780700      -0.38482500
O        2.70690800       0.81494500       0.84821200
O        1.74043200       0.12300900      -1.29917000
O        3.46862300       1.89886800      -1.17347800
H        0.10282600      -0.33923800      -1.26643500
H        3.17361100       2.35611100      -1.97300200
H       -5.34058300       0.86781500      -1.43473600
H       -3.50115200      -1.10737800      -0.48687800
C       -4.44794800       0.53224800      -0.89148500
O       -4.30265900      -0.76035500      -0.97252400
O       -3.72726500       1.32054800      -0.29976200
N       -1.24431700       1.76873200       0.90020600
H       -0.93306300       0.84308900       1.26578600
H       -0.48433300       2.06670300       0.26472800
C       -1.45829800       2.75691100       1.97549200
H       -1.80390100       3.69415500       1.54026000
H       -2.20870500       2.37673200       2.66821400
H       -0.51604800       2.91918800       2.49836300
H       -2.11121100       1.58886500       0.36329400
N        2.43300100      -1.94207500       0.94550600
H        2.39687200      -0.90301900       1.02903700
C        3.55734700      -2.32704400       0.06212200
H        4.49230100      -1.96008600       0.48472300
H        3.58400400      -3.41135800      -0.04316000
H        3.38426500      -1.85991200      -0.90672900
H        2.52040100      -2.33323000       1.88087700
