1sa_1ma_3w.log
 OpenBabel02281909513D
Gaussian groups/kemi/kmacke/programs/G09D/g09/g09 # opt freq 6-31++g(d,p) wb97xd
 23 18  0  0  0  0  0  0  0  0999 V2000
    3.0042   -1.4267   -1.1600 C   0  0  0  0  0  0  0  0  0  0  0  0
    2.6690   -2.4601   -1.2454 H   0  0  0  0  0  0  0  0  0  0  0  0
    3.0722   -0.9830   -2.1533 H   0  0  0  0  0  0  0  0  0  0  0  0
    3.9817   -1.3969   -0.6784 H   0  0  0  0  0  0  0  0  0  0  0  0
    1.9140   -1.0739    0.5974 H   0  0  0  0  0  0  0  0  0  0  0  0
    2.2897    0.3378   -0.2585 H   0  0  0  0  0  0  0  0  0  0  0  0
   -3.3068   -0.7416   -1.2540 H   0  0  0  0  0  0  0  0  0  0  0  0
    1.0738   -0.6992   -0.7723 H   0  0  0  0  0  0  0  0  0  0  0  0
    1.2154   -1.7704    2.8934 H   0  0  0  0  0  0  0  0  0  0  0  0
    0.1745   -1.4871    1.7699 H   0  0  0  0  0  0  0  0  0  0  0  0
    2.8804    2.6922   -0.5600 H   0  0  0  0  0  0  0  0  0  0  0  0
    1.5454    2.4246    0.2068 H   0  0  0  0  0  0  0  0  0  0  0  0
   -0.7137    2.4009    0.1070 H   0  0  0  0  0  0  0  0  0  0  0  0
   -0.2736    3.0265    1.4470 H   0  0  0  0  0  0  0  0  0  0  0  0
    2.0315   -0.6672   -0.3519 N   0  0  0  0  0  0  0  0  0  0  0  0
   -1.8684    1.1981   -0.4631 O   0  0  0  0  0  0  0  0  0  0  0  0
   -1.1743   -0.5141    1.1868 O   0  0  0  0  0  0  0  0  0  0  0  0
   -2.9100   -1.0381   -0.4237 O   0  0  0  0  0  0  0  0  0  0  0  0
   -0.5687   -0.7610   -1.1902 O   0  0  0  0  0  0  0  0  0  0  0  0
    1.0706   -1.8466    1.9479 O   0  0  0  0  0  0  0  0  0  0  0  0
    2.4368    2.0486   -0.0035 O   0  0  0  0  0  0  0  0  0  0  0  0
   -0.0204    2.9575    0.5229 O   0  0  0  0  0  0  0  0  0  0  0  0
   -1.5307   -0.2122   -0.2058 S   0  0  0  0  0  0  0  0  0  0  0  0
  1  4  1  0  0  0  0
  1 15  1  0  0  0  0
  2  1  1  0  0  0  0
  3  1  1  0  0  0  0
  7 18  1  0  0  0  0
  8 15  1  0  0  0  0
 10 20  1  0  0  0  0
 11 21  1  0  0  0  0
 13 22  1  0  0  0  0
 15  6  1  0  0  0  0
 15  5  1  0  0  0  0
 16 23  2  0  0  0  0
 18 23  1  0  0  0  0
 19 23  2  0  0  0  0
 20  9  1  0  0  0  0
 21 12  1  0  0  0  0
 22 14  1  0  0  0  0
 23 17  1  0  0  0  0
M  RAD  1  17   2
M  END
$$$$
