1sa_1ma_1w.log
 OpenBabel02281909513D
Gaussian users/kemi/kmacke/programs/G09D/g09/g09 # opt=maxcycle=10000 freq wb97x
 17 14  0  0  0  0  0  0  0  0999 V2000
    1.0868   -0.7442    0.9106 H   0  0  0  0  0  0  0  0  0  0  0  0
   -1.1895   -0.2005   -0.0930 S   0  0  0  0  0  0  0  0  0  0  0  0
   -1.7105    1.1280    0.7194 O   0  0  0  0  0  0  0  0  0  0  0  0
   -0.2425    0.3899   -1.0603 O   0  0  0  0  0  0  0  0  0  0  0  0
   -2.3728   -0.8448   -0.6287 O   0  0  0  0  0  0  0  0  0  0  0  0
   -0.4629   -1.0109    0.9300 O   0  0  0  0  0  0  0  0  0  0  0  0
   -2.5706    0.9149    1.1048 H   0  0  0  0  0  0  0  0  0  0  0  0
    2.1139   -0.5052    0.7226 N   0  0  0  0  0  0  0  0  0  0  0  0
    2.6788   -0.7507    1.5317 H   0  0  0  0  0  0  0  0  0  0  0  0
    2.5585   -1.2040   -0.5079 C   0  0  0  0  0  0  0  0  0  0  0  0
    1.8960   -0.8898   -1.3142 H   0  0  0  0  0  0  0  0  0  0  0  0
    2.4687   -2.2798   -0.3598 H   0  0  0  0  0  0  0  0  0  0  0  0
    3.5897   -0.9348   -0.7359 H   0  0  0  0  0  0  0  0  0  0  0  0
    2.1334    0.5276    0.5731 H   0  0  0  0  0  0  0  0  0  0  0  0
    1.6981    2.0382   -0.1920 O   0  0  0  0  0  0  0  0  0  0  0  0
    1.4335    2.8585    0.2308 H   0  0  0  0  0  0  0  0  0  0  0  0
    0.8917    1.6642   -0.6113 H   0  0  0  0  0  0  0  0  0  0  0  0
  2  3  1  0  0  0  0
  2  6  1  0  0  0  0
  3  7  1  0  0  0  0
  4  2  2  0  0  0  0
  5  2  2  0  0  0  0
  8  1  1  0  0  0  0
  8  9  1  0  0  0  0
 10 12  1  0  0  0  0
 10  8  1  0  0  0  0
 11 10  1  0  0  0  0
 13 10  1  0  0  0  0
 14  8  1  0  0  0  0
 15 16  1  0  0  0  0
 17 15  1  0  0  0  0
M  RAD  1   6   2
M  END
$$$$
