2sa_1ma_4w.log
 OpenBabel02281909513D
Gaussian groups/kemi/kmacke/programs/G09D/g09/g09 # opt freq 6-31++g(d,p) wb97xd
 33 25  0  0  0  0  0  0  0  0999 V2000
   -0.3728    3.9252   -1.0042 C   0  0  0  0  0  0  0  0  0  0  0  0
    0.5685    4.4035   -0.7344 H   0  0  0  0  0  0  0  0  0  0  0  0
   -0.4780    3.9087   -2.0889 H   0  0  0  0  0  0  0  0  0  0  0  0
   -1.2032    4.4776   -0.5655 H   0  0  0  0  0  0  0  0  0  0  0  0
   -4.6974   -0.7308   -0.2357 H   0  0  0  0  0  0  0  0  0  0  0  0
   -1.2672    2.0346   -0.7083 H   0  0  0  0  0  0  0  0  0  0  0  0
    0.3887    1.9640   -0.8430 H   0  0  0  0  0  0  0  0  0  0  0  0
   -0.3086    2.4836    0.5597 H   0  0  0  0  0  0  0  0  0  0  0  0
    0.8854   -1.3421    1.8862 H   0  0  0  0  0  0  0  0  0  0  0  0
    4.3575    1.0261    0.4556 H   0  0  0  0  0  0  0  0  0  0  0  0
   -0.5982   -1.6268    1.5704 H   0  0  0  0  0  0  0  0  0  0  0  0
    0.7825   -2.7713    0.5164 H   0  0  0  0  0  0  0  0  0  0  0  0
    2.1223   -2.6169   -0.3482 H   0  0  0  0  0  0  0  0  0  0  0  0
    0.7276   -2.6147   -1.1503 H   0  0  0  0  0  0  0  0  0  0  0  0
   -0.8358   -1.6228   -1.8245 H   0  0  0  0  0  0  0  0  0  0  0  0
    0.5349   -0.8866   -1.9899 H   0  0  0  0  0  0  0  0  0  0  0  0
    0.6187    1.3316    2.0929 H   0  0  0  0  0  0  0  0  0  0  0  0
   -0.9062    1.1403    2.0584 H   0  0  0  0  0  0  0  0  0  0  0  0
   -0.3874    2.5441   -0.4863 N   0  0  0  0  0  0  0  0  0  0  0  0
   -2.6298    0.9638   -0.7257 O   0  0  0  0  0  0  0  0  0  0  0  0
   -4.1135   -0.5805    0.5208 O   0  0  0  0  0  0  0  0  0  0  0  0
   -2.3214   -1.4714   -0.9240 O   0  0  0  0  0  0  0  0  0  0  0  0
   -1.8153   -0.3312    1.2109 O   0  0  0  0  0  0  0  0  0  0  0  0
    3.1383   -1.1922   -0.2924 O   0  0  0  0  0  0  0  0  0  0  0  0
    1.5009    0.5149   -1.0113 O   0  0  0  0  0  0  0  0  0  0  0  0
    1.9964    0.1833    1.3921 O   0  0  0  0  0  0  0  0  0  0  0  0
    3.6290    1.2354   -0.1463 O   0  0  0  0  0  0  0  0  0  0  0  0
    0.2627   -2.0703    1.7152 O   0  0  0  0  0  0  0  0  0  0  0  0
    1.2498   -3.0828   -0.3602 O   0  0  0  0  0  0  0  0  0  0  0  0
    0.0978   -1.7481   -2.1050 O   0  0  0  0  0  0  0  0  0  0  0  0
   -0.2178    1.8241    2.1305 O   0  0  0  0  0  0  0  0  0  0  0  0
   -2.6135   -0.3386   -0.0310 S   0  0  0  0  0  0  0  0  0  0  0  0
    2.4910    0.0962    0.0023 S   0  0  0  0  0  0  0  0  0  0  0  0
  1  2  1  0  0  0  0
  1  4  1  0  0  0  0
  1 19  1  0  0  0  0
  3  1  1  0  0  0  0
  5 21  1  0  0  0  0
  6 19  1  0  0  0  0
  7 19  1  0  0  0  0
 11 28  1  0  0  0  0
 17 31  1  0  0  0  0
 18 31  1  0  0  0  0
 19  8  1  0  0  0  0
 20 32  2  0  0  0  0
 22 32  2  0  0  0  0
 24 33  2  0  0  0  0
 25 33  2  0  0  0  0
 27 33  1  0  0  0  0
 27 10  1  0  0  0  0
 28  9  1  0  0  0  0
 29 13  1  0  0  0  0
 29 12  1  0  0  0  0
 30 16  1  0  0  0  0
 30 15  1  0  0  0  0
 32 21  1  0  0  0  0
 32 23  1  0  0  0  0
 33 26  1  0  0  0  0
M  RAD  3  14   2  23   2  26   2
M  END
$$$$
