36
2nta2tma-1
N        2.57345900       0.32922200       0.38435300
C        2.50881000       1.40123200       1.40781000
H        1.69250000       2.07473700       1.15019500
H        2.32262700       0.94227900       2.37966300
H        3.46410400       1.93205300       1.42193100
C        3.65571700      -0.64289500       0.67166400
H        3.49315800      -1.06464000       1.66431000
H        3.60371500      -1.43754900      -0.07195400
H        4.61906800      -0.12891900       0.63464700
C        2.69368100       0.88613600      -0.98763200
H        2.59981000       0.06210200      -1.69493000
H        1.89942800       1.61882400      -1.13476100
H        3.66776400       1.37186500      -1.08731100
N       -2.57103300      -0.33457100       0.38508600
C       -2.49694100      -1.42576100       1.38784200
H       -1.68520600      -2.09694000       1.10998400
H       -2.29843300      -0.98476500       2.36549500
H       -3.45378400      -1.95381400       1.40306400
C       -3.64809200       0.63333800       0.70448900
H       -3.47291700       1.03520700       1.70327400
H       -3.60527500       1.44251400      -0.02384900
H       -4.61240000       0.12089200       0.67038400
C       -2.70907500      -0.86434000      -0.99598400
H       -2.62573100      -0.02599200      -1.68785100
H       -1.91576600      -1.59249900      -1.16906700
H       -3.68354900      -1.34968600      -1.09307900
N       -0.63156100       2.25297900      -0.42775500
O       -1.67536000       2.25795800      -1.10103100
O        0.26551600       3.08863800      -0.59422400
O       -0.46779100       1.34561300       0.46025200
H       -1.66760500       0.22604400       0.41127300
N        0.62896600      -2.24671000      -0.43267300
O        1.64182100      -2.20991600      -1.15149400
O       -0.27743500      -3.07017400      -0.61295100
O        0.50842100      -1.39827800       0.51681400
H        1.67370700      -0.23515100       0.41744600
36
2nta2tma-2
N       -2.82056600      -0.21921300       0.06525200
C       -3.00317100      -1.39376100       0.95215700
H       -2.17038600      -2.08222900       0.80177500
H       -3.02622400      -1.04819200       1.98672400
H       -3.94631500      -1.88667100       0.70322500
C       -3.91893900       0.76280000       0.22037600
H       -3.99345600       1.04360900       1.27181800
H       -3.67411000       1.64324700      -0.37285400
H       -4.85560600       0.30966000      -0.11331300
C       -2.63327100      -0.61278400      -1.35558600
H       -2.41203700       0.29047700      -1.92354800
H       -1.79367400      -1.30621100      -1.41446700
H       -3.55112200      -1.08598000      -1.71429900
N        2.81997900       0.21992300      -0.06707800
C        3.91770000      -0.76272000      -0.22304600
H        3.67479000      -1.64138900       0.37356400
H        3.98845000      -1.04675200      -1.27389100
H        4.85557100      -0.30867500       0.10598100
C        3.00132600       1.39297300      -0.95624000
H        3.02347300       1.04544500      -1.99017300
H        2.16858400       2.08163100      -0.80644800
H        3.94460500       1.88654700      -0.70915900
C        2.63574500       0.61548100       1.35362200
H        1.79799900       1.31111400       1.41304000
H        2.41328100      -0.28671500       1.92281500
H        3.55530400       1.08680700       1.71043400
N        0.53977000      -2.12357600      -0.14261100
O        1.38209700      -2.30615200       0.75367600
O       -0.44879900      -2.85843300      -0.27105400
O        0.69247400      -1.14616000      -0.94958000
H        1.93215100      -0.28509500      -0.37514800
N       -0.53946500       2.12280800       0.14564500
O       -1.38053100       2.30723400      -0.75141400
O        0.45031200       2.85591800       0.27534600
O       -0.69458900       1.14536400       0.95203000
H       -1.93336400       0.28568600       0.37574500
36
2nta2tma-3
N        2.75199200      -0.14857900       0.03289000
C        2.13432900      -0.76967600      -1.16879200
H        1.05743100      -0.61631900      -1.11934900
H        2.53419600      -0.27811000      -2.05646800
H        2.35138300      -1.83892600      -1.18227300
C        4.22438000      -0.07236600      -0.08634000
H        4.47936700       0.51799400      -0.96728500
H        4.62931800       0.41155400       0.80300800
H        4.63439400      -1.08037500      -0.18051000
C        2.33125000      -0.82966800       1.28599500
H        2.77932800      -0.30226200       2.12938900
H        1.24442100      -0.79465800       1.35865800
H        2.66596100      -1.86807000       1.25678500
N       -2.66227800       0.27210700       0.06137300
C       -2.46298300       0.87509900      -1.28000000
H       -1.69982200       1.64813500      -1.20138000
H       -2.13979800       0.08538200      -1.95753200
H       -3.40887400       1.31075300      -1.61214400
C       -3.73937300      -0.74672100       0.04135500
H       -3.46735100      -1.50876500      -0.68885600
H       -3.80734200      -1.20283900       1.02906200
H       -4.68442700      -0.26694500      -0.22320800
C       -2.89093400       1.30568500       1.09958700
H       -2.92417700       0.81676200       2.07389300
H       -2.06440400       2.01440800       1.06363700
H       -3.84037700       1.80782200       0.89833900
N       -0.52382200      -2.25886000      -0.01369100
O       -1.03851400      -2.00809600      -1.12902200
O        0.34969400      -3.12066800       0.11665400
O       -0.89513800      -1.57618100       0.99429600
H       -1.79610800      -0.26771000       0.33015100
N        0.60694600       2.28875400       0.01363800
O        0.14832900       1.17740100       0.38222400
O       -0.14071700       3.24396700      -0.20569300
O        1.86134500       2.39809300      -0.13678600
H        2.38700600       0.84797300       0.06240200
