18
2nta2am-2
N       -0.10096800       2.39997200       0.50000200
H       -0.39524600       2.92808400       1.31640400
H        0.46971900       2.97524500      -0.11557500
H        0.48039500       1.55758800       0.79002500
N       -0.00721900      -2.35937600       0.52418900
H       -0.09648900      -1.79362900       1.37050500
H       -0.02639900      -3.35216700       0.73631800
H       -0.81920700      -2.07468100      -0.08358600
N        1.96793700       0.02261300      -0.13911200
O        1.27275700       0.14497400       0.92686100
O        2.36464500       1.02476000      -0.72959900
O        2.20210700      -1.13470000      -0.55681800
H        0.89833800      -2.06670700       0.07700400
N       -1.92109800      -0.03181400      -0.23315200
O       -1.74077000      -0.04298100       1.00072200
O       -1.96531800      -1.10709700      -0.87867800
O       -2.02524600       1.06226100      -0.84264100
H       -0.94707700       2.02875900      -0.01337000
18
2nta2am-1
N       -0.06097100      -2.23583500       0.12085800
H        0.32966500      -2.31470100      -0.81628800
H       -1.07944300      -1.97313800       0.06516100
H        0.08143600      -3.10625800       0.62537000
H        0.46536900      -1.44791800       0.58909000
N        0.00812300       2.20599700       0.10044800
H       -0.65724700       2.75877600       0.63504300
H        0.69552300       2.78596700      -0.37461100
H        0.52674600       1.51842400       0.69919800
N       -2.19252800       0.03130100      -0.17318900
O       -2.69761400       1.03430200       0.33478600
O       -2.53716100      -1.12577200       0.16995700
O       -1.27310800       0.15248200      -1.04449300
H       -0.52862900       1.59564600      -0.57178200
N        2.22087800      -0.01031700       0.08238400
O        1.27809200      -0.03046800       0.97406200
O        2.65754100       1.08529800      -0.27943700
O        2.61450700      -1.08519400      -0.37546100
18
2nta2am-4
N        0.00988900       2.60795200       0.17791700
H       -0.84523800       1.99271100       0.03320900
H        0.04146000       3.31320500      -0.55368600
H       -0.05613000       3.05923100       1.08657100
N        0.08596000      -2.45515900       0.21346600
H        1.08242100      -2.13398100       0.11490900
H       -0.34489500      -2.52260600      -0.70751000
H        0.01185700      -3.34003900       0.70605800
N       -1.91977600      -0.05866600       0.08235300
O       -2.41218300      -1.03799600      -0.47870500
O       -2.17000500       1.10998700      -0.30245900
O       -1.12772800      -0.21308900       1.06339700
H       -0.43726100      -1.68303700       0.71649800
N        1.87519200      -0.00909400      -0.23861400
O        0.97099500      -0.04541200      -1.09227500
O        2.41146100      -1.06936900       0.16502300
O        2.23907600       1.09285800       0.24711100
H        0.89599900       2.02344100       0.14136400
