37
3sa4am-35
S       -2.99075100      -1.29772000      -0.25244900
O       -2.91133800      -0.71791700       1.14344400
O       -1.75839800      -2.07108800      -0.51595200
O       -4.24968100      -1.93628200      -0.55683500
O       -2.94110300       0.00704800      -1.20720200
H       -2.06197300       0.47303900      -1.11585600
H       -3.99549300       1.94833500       0.02273100
S        2.99055300      -1.29769600       0.25235900
O        1.75615600      -2.06797900       0.51552700
O        4.24778000      -1.93906800       0.55768700
O        2.91302100      -0.71847000      -1.14383800
O        2.94315900       0.00766200       1.20643500
H        2.06408700       0.47370000       1.11616800
H        1.32649500      -1.25893000      -1.79367900
S        0.00021700       2.07919500       0.00024800
O        0.60824400       1.19078500       1.06852200
O       -0.60711900       1.18995900      -1.06797500
O       -1.07531100       2.91475200       0.60006200
O        1.07497100       2.91543500      -0.59987700
H        2.52648000       2.35069100      -0.78703200
N        3.49816900       1.91742700      -0.91394100
H        4.02291400       2.40965900      -1.63123000
H        3.37013900       0.90023100      -1.15434200
H        3.99615500       1.94799400      -0.02531400
N        0.33274300      -1.14327300      -2.06885100
H       -0.30382400      -1.73301200      -1.50175400
H        0.19517100      -1.32917100      -3.05764300
H        0.07442400      -0.15865900      -1.82921900
N       -3.49862900       1.91803100       0.91199700
H       -3.37087900       0.90104300       1.15285100
H       -4.02423500       2.41046800       1.62849900
H       -2.52651500       2.35106100       0.78607200
N       -0.33278400      -1.14219300       2.07056700
H       -0.07347600      -0.15794700       1.83102600
H        0.30402300      -1.73253600       1.50427500
H       -0.19695300      -1.32815000       3.05957300
H       -1.32637300      -1.25694200       1.79396600
37
3sa4am-21
S        3.44255800      -0.86759400      -0.10590400
O        2.94038000      -0.56244300      -1.46181700
O        3.94811600       0.33987500       0.58205600
O        2.52222600      -1.69301200       0.68680600
O        4.71665600      -1.84860200      -0.28126300
H        5.41938400      -1.36322400      -0.73429600
S       -2.79063200      -1.69152800      -0.04202700
O       -1.43395900      -2.23636300       0.28808700
O       -2.71239700      -0.96133900      -1.34592100
O       -3.88337600      -2.62739200       0.08559600
O       -3.07725600      -0.54394400       1.05295400
H       -2.30010800       0.09124900       1.08757500
S       -0.59366800       2.15926200       0.29942300
O       -0.96683100       0.96658700       1.16841300
O        0.06292400       1.62435200      -0.95688000
O       -1.84459500       2.89373900      -0.05165600
O        0.37168100       3.02324800       1.02672800
N       -3.84137100       1.47448000      -0.97970300
H       -4.48801300       1.30727700      -0.21075900
H       -4.32235300       1.92904300      -1.75030100
H       -3.02460800       2.08228800      -0.62302900
H       -3.45557100       0.53802100      -1.26779800
N        2.60146100       2.55834500      -0.36092200
H        1.90580300       2.90228200       0.35197900
H        1.98234100       2.13986000      -1.06998800
H        3.15696800       3.31294600      -0.75075800
H        3.20280000       1.80254600       0.03263500
N        0.26886700      -1.17631600       2.16276700
H       -0.41477000      -1.79100500       1.67785100
H        1.20814100      -1.35108700       1.75582500
H       -0.03645600      -0.20125600       1.92139900
H        0.26518000      -1.33114800       3.16611500
N        0.15157300      -0.97656000      -1.65085700
H       -0.28791500      -1.57185700      -0.92318100
H       -0.32207300      -1.17012400      -2.52884000
H       -0.00426000       0.03101500      -1.38635600
H        1.17108600      -1.11638700      -1.71577400
37
3sa4am-36
S        2.82017400      -1.04316500       0.03882500
O        2.35278300      -0.24600200       1.20846500
O        2.83763100      -2.49827900       0.27359800
O        1.70317900      -0.86354000      -1.09383800
O        4.07075200      -0.48326500      -0.50186600
H        3.84459900       1.26788300      -0.28798600
H        1.06252300      -0.09320600      -0.90668400
S       -2.64534300      -1.46500100       0.01176000
O       -1.43927900      -2.04230100       0.72012800
O       -3.60968400      -2.46192200      -0.39712200
O       -3.15678600      -0.33074500       0.82228300
O       -2.06683800      -0.83987900      -1.34089800
H       -1.37036800      -0.14787900      -1.12525700
H       -0.30703000      -0.14773400       3.23687100
S       -0.22585000       2.26378200      -0.33715000
O       -0.62870800       2.35892700       1.10646200
O        1.10403400       2.88114400      -0.58972500
O       -0.14087300       0.76937200      -0.67058400
O       -1.27998700       2.87780200      -1.19382300
H       -2.65312000       2.54472500      -0.50529900
H        0.45901000      -2.79581100      -1.61310000
N       -0.18411700      -0.08642800       2.23132800
H       -0.45320100       0.86405000       1.87241100
H       -0.75318500      -0.81289200       1.74977700
H        0.80979600      -0.23681200       1.96090900
N        0.40759300      -3.32101200      -0.73994400
H        1.33592700      -3.19284400      -0.27282300
H        0.20302700      -4.30015500      -0.91844500
H       -0.35632000      -2.88016300      -0.15111300
N       -3.45241500       2.27115800       0.15773000
H       -4.36242200       2.52459500      -0.21531500
H       -3.27195600       2.75955300       1.03271300
H       -3.40097200       1.23810700       0.34550900
N        3.50719100       2.14839500       0.16037200
H        3.46216500       1.94621600       1.15812900
H        2.51359200       2.39260300      -0.16366800
H        4.13666200       2.92463700      -0.02264400
