43
2sa1am1tma1eda-12
S       -1.25444200       1.94743500       0.10461100
O       -0.02283300       2.66850300       0.44352300
O       -2.48524000       2.71595900       0.03141800
O       -1.08043900       1.33526800      -1.37674600
O       -1.41173900       0.71341900       0.97751600
H       -0.18945700      -0.35907700       1.26503600
H       -0.38618400       0.62191500      -1.35404000
S        0.64689800      -1.69877200      -0.19777600
O        1.86400000      -2.49828100      -0.12078200
O        0.52130000      -1.05701400       1.28266400
O        0.81857700      -0.49901600      -1.09856800
O       -0.60861000      -2.39980600      -0.47721100
N        3.23998500      -0.16809700       2.41680800
H        3.50111000       0.06668100       3.36736000
H        4.03140600      -0.59781800       1.94075400
H        2.48058700      -0.84581100       2.44012100
H        2.69928900       0.86044200       1.12624200
N       -3.44345800      -0.76774700       0.03030200
C       -4.58144000       0.13050900       0.35042700
C       -3.30614300      -0.98585500      -1.43444500
C       -3.50345100      -2.05074000       0.77424100
H       -2.41365800      -1.58949400      -1.60258100
H       -4.20067700      -1.49766600      -1.79743200
H       -3.19087900      -0.01554900      -1.91703900
H       -4.61831900       0.27633500       1.43019700
H       -4.40681200       1.09510300      -0.12808500
H       -5.50856400      -0.32590900      -0.00336600
H       -3.54712900      -1.83235000       1.84194800
H       -4.39744100      -2.59882200       0.46776700
H       -2.59941300      -2.61680100       0.54602400
H       -2.58186600      -0.25602100       0.36233700
C        4.16985400       0.40142500      -1.32259700
C        3.67499900       1.63598900      -0.56988000
N        2.44857800       1.32026700       0.20184700
N        4.42031500      -0.72477800      -0.42261900
H        5.19166200      -1.28532400      -0.76398100
H        3.61086900      -1.34669000      -0.38239300
H        5.10074200       0.68550700      -1.82285300
H        3.44247300       0.15244800      -2.10786800
H        3.44529000       2.43858200      -1.27524100
H        4.43247300       1.98714900       0.13527400
H        1.85494200       0.64616100      -0.32429200
H        1.82929500       2.12068600       0.38138700
43
2sa1am1tma1eda-48
S       -0.58445600      -1.87142900       0.11474000
O       -1.03786600      -0.84457700      -0.90651900
O       -1.46786500      -3.02588100       0.15462700
O       -0.83154700      -1.13474100       1.52674600
O        0.85591900      -2.11666200      -0.00934600
H       -0.36546600      -0.25330700       1.51166000
H       -0.12166400       0.53007900      -1.20950300
S        0.01992100       2.13386400       0.19744000
O        0.37142700       1.39343900      -1.19791900
O        0.48246400       1.15535200       1.24885300
O        0.83800800       3.34105500       0.16293300
O       -1.43453600       2.31450500       0.24210300
H       -2.50717700      -0.22102700      -0.47338300
N        3.70576700       2.65950300      -0.50521700
H        4.39593600       3.17502800       0.03130100
H        2.78682800       3.06422200      -0.29742300
H        3.89292700       2.83627000      -1.48731900
N       -3.52744000      -0.03337700      -0.28333100
C       -4.22452300      -1.30071400      -0.61947100
C       -3.67095500       0.30915700       1.15643200
C       -3.93947700       1.08962200      -1.16143400
H       -3.07219900       1.19877100       1.35131800
H       -4.72765100       0.48778100       1.36977500
H       -3.28995000      -0.52388100       1.74667500
H       -4.06486000      -1.51708000      -1.67591500
H       -3.78658600      -2.10586600      -0.02786100
H       -5.29077700      -1.18901400      -0.41039700
H       -3.76637200       0.80130300      -2.19896900
H       -5.00063600       1.29515100      -1.00226800
H       -3.32746300       1.95646600      -0.91155700
C        4.43377500      -1.76300600      -0.02952500
N        3.64895400      -2.17632600      -1.18454200
C        3.54890400      -0.94574900       0.90998800
N        2.78547700       0.05655600       0.13616200
H        2.86651400      -2.77150000      -0.92340500
H        4.21291100      -2.65266100      -1.87641100
H        4.86534000      -2.58922000       0.55454900
H        5.26576900      -1.14550600      -0.38735800
H        4.13965800      -0.43361400       1.67193100
H        2.81653700      -1.59298100       1.39642400
H        3.32724700       0.91754700      -0.13279300
H        1.95126100       0.39768500       0.65416700
H        2.44873800      -0.40388400      -0.71739600
43
2sa1am1tma1eda-44
S       -0.58551500      -1.75745000       0.24876900
O       -0.90186100      -0.80327400      -0.88054600
O       -1.69878000      -2.64295100       0.54995200
O       -0.48666000      -0.78723200       1.54426900
O        0.73869900      -2.36427400       0.06853800
H        0.23331000      -0.12567700       1.35656700
H        0.24763200       0.23924300      -1.43601000
S        1.09972800       1.86220700      -0.32171000
O        2.22704800       2.72651000      -0.63035100
O       -0.20077200       2.48904300      -0.06018700
O        0.94200400       0.93198400      -1.62531800
O        1.43353800       0.87249600       0.78425300
N       -1.72835400       2.07390900       2.42519200
H       -0.95049600       2.46845500       1.89414300
H       -1.37207700       1.28367700       2.95495100
H       -2.06649400       2.77114600       3.07876700
N        3.44253000      -0.71563000      -0.06580900
C        3.68256700      -1.79337300       0.92560900
C        3.24559100      -1.25928100      -1.43559700
C        4.49840700       0.32813500      -0.03462200
H        3.01280900      -0.43000000      -2.10284200
H        4.16343300      -1.76467900      -1.74572200
H        2.40365500      -1.95060300      -1.40408600
H        3.76975400      -1.34227400       1.91477700
H        2.82848800      -2.47038000       0.90188000
H        4.60811500      -2.31389400       0.66875400
H        4.58158600       0.70989900       0.98300000
H        5.44529700      -0.11118300      -0.35617900
H        4.19869600       1.14675200      -0.69037300
H        2.55908900      -0.22032000       0.22428400
C       -4.38195000      -0.75199800      -0.79924800
N       -4.88852900       0.30083600      -1.68299400
C       -3.86338600      -0.12148700       0.48638900
N       -2.85338100       0.90594300       0.14181200
H       -5.85728200       0.52528300      -1.48469100
H       -4.82919300       0.03305200      -2.65754200
H       -5.12431100      -1.51879700      -0.54521800
H       -3.54625600      -1.25885100      -1.28980400
H       -3.38505300      -0.87044800       1.11983400
H       -4.66541000       0.37110500       1.04444900
H       -2.03040600       0.43625400      -0.28592800
H       -2.52252200       1.43340000       0.99603500
H       -3.24873800       1.53691700      -0.55944500
