53
2sa3tma-19
S        0.64004200       1.23016100       1.44791900
O        1.67054100       1.91032100       0.61136300
O        0.54831300       1.70352800       2.83061200
O       -0.71752500       1.35441500       0.75986900
O        0.97953900      -0.27844200       1.43939800
H        0.13483300      -1.39984000       0.72285900
H       -0.60693400       1.75817600      -0.71374700
S       -0.62146200      -1.88590700      -1.26276700
O       -1.51932900      -0.68991300      -1.27731700
O        0.70704500      -1.56875000      -1.82850900
O       -0.37287100      -2.16802100       0.31854900
O       -1.25448900      -3.10463500      -1.74399600
N       -0.54654800       2.27316000      -1.66131800
C       -1.85306300       2.13429800      -2.33897500
C       -0.23666400       3.67899200      -1.31348900
C        0.54644600       1.65381100      -2.44614400
H        0.67397200       3.68065700      -0.71241700
H       -0.11129300       4.26274100      -2.22950300
H       -1.05740000       4.08263100      -0.71921200
H       -2.03402300       1.07219700      -2.50667600
H       -2.62779000       2.54484200      -1.68835200
H       -1.83417900       2.68815400      -3.28169300
H        0.34737700       0.58561200      -2.54611800
H        0.60607200       2.14082200      -3.42389300
H        1.46847200       1.79732300      -1.88459200
N       -2.76443200      -0.51701800       1.22754600
C       -3.47919600      -1.74835900       0.80456500
C       -2.18596100      -0.65575700       2.58945600
C       -3.62032600       0.68729400       1.12006900
H       -1.63666300       0.25247900       2.83751300
H       -3.00236100      -0.82602200       3.29550900
H       -1.50181600      -1.50310000       2.58396600
H       -3.79178800      -1.62936800      -0.23201900
H       -2.78498200      -2.58555700       0.86510100
H       -4.33781100      -1.90050400       1.46251100
H       -3.97432400       0.76432500       0.09103900
H       -4.46759400       0.58783000       1.80225000
H       -3.00832300       1.55255500       1.37338200
H       -1.98928000      -0.36705600       0.54751500
N        3.22451000      -0.80243300       0.24118300
C        4.16795200      -0.32000100       1.27417200
C        3.20524900      -2.27974500       0.12469100
C        3.45761100      -0.15163800      -1.06714400
H        2.45383600      -2.54964000      -0.61943200
H        4.19600200      -2.63302800      -0.17331200
H        2.93091400      -2.70067000       1.09280200
H        4.03826400       0.75868800       1.37204700
H        3.91957000      -0.79624100       2.22304800
H        5.19154600      -0.56700500       0.98049300
H        3.39993700       0.92619800      -0.91591200
H        4.44403400      -0.44135300      -1.44045400
H        2.67217300      -0.48291000      -1.74725600
H        2.25549300      -0.51836400       0.60728200
53
2sa3tma-38
S        0.03784800       1.80444300      -1.50328500
O       -1.27359700       1.68555200      -0.79159300
O        0.04975800       2.77928700      -2.58003200
O        0.26480700       0.38422300      -2.22558400
O        1.13563500       1.92786300      -0.50616500
H        0.39801400      -0.32672500      -1.52933300
H       -0.77977900       1.50174000       0.93325100
S        0.15226500      -1.81864100       0.81907700
O       -0.45540500      -3.15723800       0.73866200
O        1.17479300      -1.64589800       1.87838800
O        0.82541300      -1.49590000      -0.53415500
O       -0.94462800      -0.77054500       0.99745100
H       -2.04897100      -0.99128800      -0.03997900
H        2.21812000      -0.89741800      -0.27864700
N        3.26667300      -0.66064600      -0.23683500
C        3.49498300       0.31000500       0.85651600
C        3.92834400      -1.95709500       0.03167300
C        3.62243000      -0.09495100      -1.55859000
H        3.68106300      -2.64798600      -0.77486800
H        5.01031300      -1.81169000       0.08957000
H        3.53224500      -2.34699900       0.97033300
H        2.96013900       1.22440500       0.59981800
H        3.08935600      -0.12144600       1.77217500
H        4.56823200       0.49919300       0.95015800
H        3.05071600       0.82305800      -1.70053400
H        4.69658700       0.10608000      -1.59095800
H        3.34979300      -0.81437400      -2.33150800
N       -2.84676100      -1.30300200      -0.70205400
C       -3.76319300      -0.15952000      -0.90230800
C       -2.21299800      -1.72486400      -1.97623700
C       -3.49674100      -2.44651500      -0.01925400
H       -1.47491800      -2.49582800      -1.75039300
H       -2.98521300      -2.11239000      -2.64648300
H       -1.71338500      -0.86351500      -2.42045900
H       -4.19828900       0.11194700       0.06146000
H       -3.18225900       0.67977800      -1.28858000
H       -4.55877700      -0.44861700      -1.59443300
H       -3.92471500      -2.09515800       0.92071300
H       -4.28322700      -2.85372200      -0.66031100
H       -2.72705900      -3.19014800       0.19597000
N       -0.76998800       1.94723300       1.88099400
C       -2.00435200       1.49938100       2.56554300
C        0.44795700       1.50925800       2.60520200
C       -0.76813100       3.41137700       1.64283300
H        1.30783900       1.87812700       2.04927000
H        0.42790300       1.93531400       3.61185600
H        0.47316400       0.41846500       2.63263000
H       -2.85897500       1.77688400       1.94649100
H       -1.95263200       0.41609300       2.66861900
H       -2.07297400       1.99029800       3.53929600
H       -1.64866700       3.66974600       1.05566900
H       -0.77369300       3.92904200       2.60506500
H        0.12477600       3.65801100       1.06869400
53
2sa3tma-40
S       -2.35748300       0.59762600      -1.39553500
O       -1.02827000       0.01304300      -2.09229300
O       -2.45672100       2.02295400      -1.72535900
O       -2.09163000       0.41259100       0.08032500
O       -3.43664700      -0.26279000      -1.87704100
H       -0.73789700       1.58842700       0.75728700
H       -0.25412700       0.14320800      -1.48169100
S        1.11873600      -0.59890800       0.78879100
O        0.97958000       0.36436600      -0.35615300
O        0.17924700      -0.30075000       1.88044800
O        1.09296200      -1.99818800       0.33275800
O        2.56117100      -0.29269300       1.38758500
H        3.25034500      -0.35135300       0.61863400
H       -2.00571500      -1.22379400       0.54278200
N        4.25937800      -0.36457600      -0.62022300
C        5.60273000      -0.69457800      -0.15284000
C        3.76891100      -1.35861700      -1.57844200
C        4.20264000       0.98103500      -1.18963800
H        2.75372200      -1.09526200      -1.88110600
H        4.41678700      -1.40985400      -2.46821200
H        3.73189400      -2.33895000      -1.09869900
H        5.91806200       0.03158100       0.60128600
H        5.59494200      -1.68698800       0.30484400
H        6.33490900      -0.69034300      -0.97662100
H        4.54241500       1.70606900      -0.44451000
H        4.83673400       1.07126800      -2.08619100
H        3.16629700       1.20697300      -1.45139100
N       -2.29788900      -2.23065300       0.63712400
C       -1.84774200      -2.93098000      -0.59837300
C       -1.67862200      -2.81379700       1.85263400
C       -3.77935300      -2.19029900       0.72651800
H       -1.92336800      -2.18467800       2.70803600
H       -2.07465600      -3.82290200       1.99244600
H       -0.59818600      -2.83119400       1.71564200
H       -2.30869300      -2.44018900      -1.45598900
H       -0.76165800      -2.84916900      -0.65117800
H       -2.15856600      -3.97683700      -0.53488500
H       -4.15847400      -1.66886900      -0.15382500
H       -4.15976100      -3.21339400       0.77226200
H       -4.05967800      -1.64478200       1.62824500
N       -0.56091300       2.58416100       1.00897800
C       -1.89380800       3.15930800       1.32571200
C        0.35254800       2.62582400       2.17728800
C        0.04489600       3.25018800      -0.17616000
H        1.30228600       2.17038700       1.90008700
H        0.49175600       3.66996100       2.46746200
H       -0.08409700       2.04645600       2.98861200
H       -2.51997200       3.07125000       0.43768600
H       -2.33121200       2.58803100       2.14416600
H       -1.76536300       4.20475300       1.61549000
H       -0.64934800       3.15206300      -1.01189400
H        0.21728500       4.30069200       0.07003500
H        0.97854100       2.73866300      -0.40441700
