46
3sa2am1ma1dma-20
S        1.68470100       2.14292500       0.13570700
O        0.63930000       1.43709100      -0.84989700
O        1.69525900       1.33251800       1.38107500
O        1.11604600       3.49410100       0.29595500
O        3.00159400       2.11157300      -0.52739300
H       -0.58229200       3.44722600      -0.02391300
H        0.49863200       0.45430800      -0.65615500
S        0.60158100      -2.28622600      -0.19599500
O        0.72363500      -2.46270800       1.28094600
O       -0.24364500      -3.35899100      -0.80533000
O       -0.11198800      -0.94357600      -0.42804700
O        1.93248400      -2.23470400      -0.85615300
H        3.02568900      -1.11615200      -0.49095000
H       -1.56280700      -0.62151300      -0.89655200
S       -3.29278100       0.10735700       0.18625100
O       -2.49397600      -0.31515600      -1.13982800
O       -4.43382300       0.87226900      -0.28217100
O       -3.58549500      -1.15876500       0.90069600
O       -2.32320800       0.92998800       0.99198300
H       -1.15245900       0.06040600       1.96343500
H       -3.15054500      -2.54080600       0.04832300
N       -2.82750200      -3.30468400      -0.59613900
H       -3.18490200      -3.09549300      -1.52564600
H       -3.18208000      -4.20510200      -0.28623500
H       -1.74136900      -3.32333600      -0.63756100
N       -0.27931700      -0.23854800       2.44129600
H        0.02831100      -1.17924200       2.08043600
H       -0.40465000      -0.24794800       3.44826000
H        0.45853800       0.43862500       2.15702800
N       -1.60509300       3.28072900      -0.17456500
H       -2.12942700       4.03738600       0.25922800
H       -1.85822100       2.39002400       0.32160400
C       -1.93597800       3.14505700      -1.61599200
H       -1.73681000       4.08869900      -2.12350500
H       -1.30108800       2.36067600      -2.02308900
H       -2.98432200       2.86192000      -1.71146600
N        3.87387000      -0.51463900      -0.29369800
H        3.59547000       0.48279100      -0.42246200
C        4.26227800      -0.72634000       1.11695800
H        3.44731800      -0.36674200       1.74391600
H        4.42580400      -1.79188600       1.28366200
H        5.17077900      -0.16106200       1.33210700
C        4.91768800      -0.87061300      -1.27468100
H        5.16405500      -1.92768900      -1.16507400
H        4.52926600      -0.69074300      -2.27691100
H        5.80400200      -0.25698600      -1.10455100
46
3sa2am1ma1dma-30
S       -3.55432800      -0.66338600       0.20264600
O       -2.58755900      -1.78536900       0.43311000
O       -4.94732200      -1.04430100       0.16549400
O       -3.21786400      -0.10571100      -1.27566800
O       -3.21178200       0.46998300       1.11565900
H       -2.24212800       0.11973600      -1.29995300
H       -1.21170700      -1.07971100       1.30923500
S        2.52545000      -1.84892500      -0.19799600
O        1.73074300      -3.09169200      -0.15189800
O        2.09428400      -0.89184800       0.88113500
O        2.03989900      -1.16613700      -1.58122800
O        3.97008500      -1.99526200      -0.26013200
H        1.88377300      -0.18686000      -1.50768300
H        0.19712200      -2.87237500      -0.94155200
S        0.06832800       1.58959700      -0.85771600
O        0.14709700       1.82019000       0.62106600
O       -0.65032400       0.27798200      -1.10972800
O       -0.68852500       2.69549600      -1.51081700
O        1.46045800       1.46516600      -1.42528900
H        2.88594800       0.63920300       0.92605500
H       -2.11620200       2.79651700      -0.80841700
N       -0.62759200      -2.44061500      -1.41825200
H       -0.38603300      -1.44296700      -1.57026600
H       -1.46809300      -2.44002400      -0.80873900
H       -0.81125300      -2.90243300      -2.30388700
N       -3.07885900       2.75823500      -0.33926900
H       -3.11552800       1.93416900       0.32020100
H       -3.78893400       2.60519100      -1.05298900
H       -3.26563600       3.62376700       0.15903200
N       -0.48128700      -0.57560800       1.84565900
H       -0.44770400       0.39333300       1.46743700
H        0.45241400      -0.95805000       1.61411800
C       -0.79319600      -0.60177800       3.28617600
H       -1.78239100      -0.16750800       3.42989200
H       -0.78851700      -1.63267200       3.63996900
H       -0.04564200      -0.02398200       3.83031400
N        3.27325700       1.54710700       0.58429000
H        2.64397600       1.73637200      -0.23170600
C        3.11064200       2.60874700       1.59723900
H        2.04474100       2.71112300       1.80223500
H        3.65895700       2.33394400       2.49998200
H        3.50297500       3.54603000       1.19906000
C        4.66111300       1.32839600       0.11996600
H        5.29626100       1.11263000       0.98026800
H        4.67482900       0.46947700      -0.55211000
H        5.01405400       2.22450600      -0.39236900
46
3sa2am1ma1dma-21
S        1.54811500       2.18884700       0.29683000
O        1.14159100       1.36295300      -1.02839600
O        2.15934100       1.16353800       1.20941700
O        0.27757800       2.67725300       0.88541300
O        2.46986500       3.20562000      -0.16960400
H       -1.74433200       1.76313500      -1.30039900
H        0.73972200       0.47084400      -0.78874100
S        0.69671200      -2.24863600      -0.34606100
O        1.19982400      -2.38992000       1.05495200
O       -0.30243500      -3.30161500      -0.68574600
O       -0.01152700      -0.88041400      -0.42222600
O        1.82774200      -2.24027800      -1.31172900
H        2.98911400      -1.25290300      -0.71941800
H       -1.46197000      -0.58356900      -0.69430700
S       -3.28007700       0.02341400       0.41078600
O       -2.38785600      -0.23051000      -0.92776800
O       -4.16785000       1.12223100       0.02041500
O       -3.95272100      -1.26853000       0.67137200
O       -2.31436600       0.40881000       1.46042200
H       -0.77856900      -0.07557400       2.05950900
H       -3.34634100      -2.50737700      -0.23764100
N       -2.90166700      -3.19270200      -0.90412900
H       -3.26694500      -4.12870500      -0.75046900
H       -1.83452500      -3.19597500      -0.77901500
H       -3.11720100      -2.89155200      -1.85161900
N        0.14912000      -0.31519300       2.46568800
H        0.47402900      -1.22827900       2.06515600
H        0.08923000      -0.34431200       3.47855300
H        0.84952700       0.38514600       2.15539800
N       -1.85833900       2.62394300      -0.75546800
H       -1.13072300       2.59171900       0.00205500
H       -2.79927100       2.53341800      -0.34331400
C       -1.67093800       3.83958900      -1.57480200
H       -0.65839700       3.83115000      -1.97759000
H       -2.40143900       3.85424800      -2.38328300
H       -1.79885800       4.71417000      -0.93837400
N        3.68510500      -0.66068900      -0.18919300
H        3.11638000      -0.02077800       0.40629300
C        4.47489800      -1.56046600       0.67559800
H        3.77412300      -2.15028600       1.26785800
H        5.07342100      -2.22389700       0.04933000
H        5.12555800      -0.96789900       1.32116600
C        4.47344400       0.16709600      -1.12516400
H        5.02624400      -0.48461400      -1.80350100
H        3.78536000       0.79939000      -1.68684100
H        5.16240400       0.79657000      -0.55995500
