24
2nta2ma-3
N        0.46393400       2.23228100      -0.62530900
H        0.81146900       1.25453900      -0.81538400
C        1.02274500       2.73894600       0.65126000
H        2.10948400       2.68047400       0.61259200
H        0.68801700       3.76370200       0.81298400
H        0.64424000       2.09726700       1.44534200
H        0.72312300       2.82283900      -1.41198000
N       -0.46413000      -2.23228700       0.62470900
H       -0.72443500      -2.82284500       1.41100700
C       -1.02190700      -2.73826100      -0.65255000
H       -2.10861800      -2.67841200      -0.61534800
H       -0.64128100      -2.09707100      -1.44602100
H       -0.68836300      -3.76347900      -0.81383600
H       -0.81140000      -1.25448200       0.81475900
N       -2.16221300       0.58409900       0.16056000
O       -1.17073100       0.37395200       0.93093500
O       -3.01628700      -0.28659700       0.00106400
O       -2.22307500       1.68722200      -0.43617100
H       -0.58243600       2.16148200      -0.56601800
N        2.16207700      -0.58430100      -0.15998400
O        1.17014000      -0.37411900      -0.92990700
O        3.01611600       0.28642400      -0.00078000
O        2.22324200      -1.68747800       0.43654400
H        0.58226700      -2.16190500       0.56632300
24
2nta2ma-2
N       -1.96237900      -1.05499500       0.81388100
H       -1.96413500      -1.39795100       1.77192600
C       -3.32756700      -0.87840200       0.27072800
H       -3.86951000      -0.15397200       0.87711800
H       -3.24060500      -0.48959800      -0.74218000
H       -3.84483600      -1.83797400       0.26453100
H       -1.41998500      -0.14873300       0.80045100
N        2.21549900       0.85400000      -0.08956600
H        2.20090100      -0.05471800      -0.60805700
C        3.20484800       0.81328100       1.00703900
H        4.20528300       0.68077700       0.59489400
H        3.15349200       1.74149600       1.57600200
H        2.95219100      -0.03394300       1.64344900
H        2.37272700       1.62188100      -0.74009300
N        0.79725900      -1.89409300      -0.39344000
O        0.91998800      -1.59364600       0.81336900
O        1.70178900      -1.60272800      -1.21097200
O       -0.25149900      -2.45617700      -0.79459500
H       -1.39571500      -1.73038100       0.24321100
N       -0.85276000       1.99626800      -0.22822000
O       -0.05490800       2.75169900      -0.78888800
O       -2.06383200       1.99567000      -0.44217400
O       -0.38068600       1.14282600       0.62970700
H        1.23636300       0.98444300       0.28199100
24
2nta2ma-1
N       -2.18122900      -0.22362900       0.94318800
H       -2.25022000      -0.55864700       1.90179900
C       -3.44757300       0.36723400       0.45653800
H       -3.73015800       1.20089600       1.09895900
H       -3.27764000       0.74112000      -0.55153900
H       -4.22851100      -0.39320500       0.45616900
H       -1.38989500       0.47330800       0.91065200
N        2.43040500      -0.01178000       0.04444500
H        1.67252300      -0.63722800       0.42216700
C        3.25901500       0.53706400       1.13706500
H        3.69965300      -0.27946800       1.70907100
H        4.04294200       1.17076500       0.72230800
H        2.60770500       1.13305000       1.77551800
H        2.96244500      -0.57153400      -0.61937100
N        0.05674500      -2.08685300      -0.34539900
O        0.35870300      -1.61406200       0.79807500
O        0.94318300      -2.35294700      -1.15742600
O       -1.15885300      -2.23987700      -0.61880100
H       -1.87662400      -1.04483100       0.36129100
N       -0.08751100       1.89953700      -0.46285400
O       -0.02168500       1.42086800       0.71632100
O       -1.17503900       2.21180300      -0.94386700
O        0.98121600       2.01523100      -1.11154700
H        1.95005600       0.77091900      -0.46634400
