dimer_m062x_h_glutaric.log
 OpenBabel08081914533D
Gaussian software/kemi/g16/avx2/g16/g16 # opt freq m062x 6-31++g(d,p) G09Default
 34 32  0  0  0  0  0  0  0  0999 V2000
   -2.1725   -1.3861   -0.2803 C   0  0  0  0  0  0  0  0  0  0  0  0
   -3.6214   -1.0029   -0.1566 C   0  0  0  0  0  0  0  0  0  0  0  0
   -4.0386   -0.9450   -1.1655 H   0  0  0  0  0  0  0  0  0  0  0  0
   -4.1508   -1.7676    0.4152 H   0  0  0  0  0  0  0  0  0  0  0  0
   -3.7631    0.3631    0.5439 C   0  0  0  0  0  0  0  0  0  0  0  0
   -3.3739    0.2933    1.5641 H   0  0  0  0  0  0  0  0  0  0  0  0
   -4.8310    0.5878    0.6126 H   0  0  0  0  0  0  0  0  0  0  0  0
   -3.0620    1.5067   -0.1887 C   0  0  0  0  0  0  0  0  0  0  0  0
   -3.2341    1.4741   -1.2690 H   0  0  0  0  0  0  0  0  0  0  0  0
   -3.4477    2.4723    0.1608 H   0  0  0  0  0  0  0  0  0  0  0  0
   -1.5711    1.5553    0.0435 C   0  0  0  0  0  0  0  0  0  0  0  0
   -1.0362    0.9852    0.9937 O   0  0  0  0  0  0  0  0  0  0  0  0
   -1.4834   -0.9750   -1.2168 O   0  0  0  0  0  0  0  0  0  0  0  0
   -0.9251    2.2859   -0.8282 O   0  0  0  0  0  0  0  0  0  0  0  0
    0.0612    2.2911   -0.6297 H   0  0  0  0  0  0  0  0  0  0  0  0
   -1.7166   -2.1278    0.6933 O   0  0  0  0  0  0  0  0  0  0  0  0
   -0.7176   -2.2465    0.6165 H   0  0  0  0  0  0  0  0  0  0  0  0
    1.5720   -1.5787   -0.1560 C   0  0  0  0  0  0  0  0  0  0  0  0
    3.0730   -1.5255    0.0082 C   0  0  0  0  0  0  0  0  0  0  0  0
    3.4508   -2.4251   -0.4932 H   0  0  0  0  0  0  0  0  0  0  0  0
    3.2769   -1.6533    1.0753 H   0  0  0  0  0  0  0  0  0  0  0  0
    3.7685   -0.2890   -0.5666 C   0  0  0  0  0  0  0  0  0  0  0  0
    4.8387   -0.5011   -0.6455 H   0  0  0  0  0  0  0  0  0  0  0  0
    3.4003   -0.0959   -1.5783 H   0  0  0  0  0  0  0  0  0  0  0  0
    3.6173    0.9867    0.2863 C   0  0  0  0  0  0  0  0  0  0  0  0
    4.1596    1.8083   -0.1848 H   0  0  0  0  0  0  0  0  0  0  0  0
    4.0174    0.8111    1.2892 H   0  0  0  0  0  0  0  0  0  0  0  0
    2.1719    1.3878    0.4021 C   0  0  0  0  0  0  0  0  0  0  0  0
    1.6444    2.1983   -0.3511 O   0  0  0  0  0  0  0  0  0  0  0  0
    0.8759   -2.3092    0.5423 O   0  0  0  0  0  0  0  0  0  0  0  0
    1.5290    0.7443    1.3545 O   0  0  0  0  0  0  0  0  0  0  0  0
    0.5380    0.9069    1.2826 H   0  0  0  0  0  0  0  0  0  0  0  0
    1.0973   -0.8258   -1.1221 O   0  0  0  0  0  0  0  0  0  0  0  0
    0.0928   -0.9229   -1.1904 H   0  0  0  0  0  0  0  0  0  0  0  0
  1  2  1  0  0  0  0
  1 16  1  0  0  0  0
  2  4  1  0  0  0  0
  2  5  1  0  0  0  0
  3  2  1  0  0  0  0
  5  7  1  0  0  0  0
  5  6  1  0  0  0  0
  8 11  1  0  0  0  0
  8 10  1  0  0  0  0
  8  5  1  0  0  0  0
  9  8  1  0  0  0  0
 11 12  2  0  0  0  0
 13  1  2  0  0  0  0
 14 15  1  0  0  0  0
 14 11  1  0  0  0  0
 17 16  1  0  0  0  0
 18 19  1  0  0  0  0
 18 30  2  0  0  0  0
 19 21  1  0  0  0  0
 20 19  1  0  0  0  0
 22 19  1  0  0  0  0
 22 25  1  0  0  0  0
 23 22  1  0  0  0  0
 24 22  1  0  0  0  0
 25 28  1  0  0  0  0
 25 27  1  0  0  0  0
 26 25  1  0  0  0  0
 28 31  1  0  0  0  0
 29 28  2  0  0  0  0
 32 31  1  0  0  0  0
 33 18  1  0  0  0  0
 34 33  1  0  0  0  0
M  END
$$$$
