dimer_pw91_h_hexanoic.log
 OpenBabel08081914533D
Gaussian opt/gaussian/g09/g09 # opt freq pw91pw91/6-31++g(d,p)
 40 38  0  0  0  0  0  0  0  0999 V2000
    1.5751   -1.0533    0.1383 C   0  0  0  0  0  0  0  0  0  0  0  0
    0.6750   -1.3569    1.0619 O   0  0  0  0  0  0  0  0  0  0  0  0
   -0.1582   -0.7542    0.9674 H   0  0  0  0  0  0  0  0  0  0  0  0
    1.4262   -0.1443   -0.7041 O   0  0  0  0  0  0  0  0  0  0  0  0
    2.8015   -1.9406    0.1664 C   0  0  0  0  0  0  0  0  0  0  0  0
   -1.5770    1.0563    0.0489 C   0  0  0  0  0  0  0  0  0  0  0  0
   -0.6717    1.3691   -0.8663 O   0  0  0  0  0  0  0  0  0  0  0  0
    0.1549    0.7560   -0.7819 H   0  0  0  0  0  0  0  0  0  0  0  0
   -1.4371    0.1319    0.8763 O   0  0  0  0  0  0  0  0  0  0  0  0
   -2.7983    1.9507    0.0371 C   0  0  0  0  0  0  0  0  0  0  0  0
    2.4992   -2.8854   -0.3217 H   0  0  0  0  0  0  0  0  0  0  0  0
    4.0311   -1.3465   -0.5308 C   0  0  0  0  0  0  0  0  0  0  0  0
    3.0103   -2.2025    1.2167 H   0  0  0  0  0  0  0  0  0  0  0  0
    4.7854   -2.1447   -0.6433 H   0  0  0  0  0  0  0  0  0  0  0  0
    4.6533   -0.1609    0.2210 C   0  0  0  0  0  0  0  0  0  0  0  0
    3.7481   -1.0303   -1.5489 H   0  0  0  0  0  0  0  0  0  0  0  0
   -2.5286    2.8332    0.6464 H   0  0  0  0  0  0  0  0  0  0  0  0
   -2.9439    2.3246   -0.9891 H   0  0  0  0  0  0  0  0  0  0  0  0
   -4.0665    1.2891    0.5923 C   0  0  0  0  0  0  0  0  0  0  0  0
   -4.6321    0.1898   -0.3179 C   0  0  0  0  0  0  0  0  0  0  0  0
   -3.8438    0.8684    1.5872 H   0  0  0  0  0  0  0  0  0  0  0  0
   -4.8306    2.0721    0.7401 H   0  0  0  0  0  0  0  0  0  0  0  0
   -3.8643   -0.5905   -0.4708 H   0  0  0  0  0  0  0  0  0  0  0  0
   -4.8470    0.6158   -1.3165 H   0  0  0  0  0  0  0  0  0  0  0  0
    4.9343   -0.4812    1.2425 H   0  0  0  0  0  0  0  0  0  0  0  0
    3.8960    0.6349    0.3398 H   0  0  0  0  0  0  0  0  0  0  0  0
   -5.9055   -0.4622    0.2385 C   0  0  0  0  0  0  0  0  0  0  0  0
   -6.6708    0.3183    0.4045 H   0  0  0  0  0  0  0  0  0  0  0  0
   -5.6860   -0.8917    1.2326 H   0  0  0  0  0  0  0  0  0  0  0  0
    5.8865    0.4217   -0.4834 C   0  0  0  0  0  0  0  0  0  0  0  0
    6.6426   -0.3745   -0.6131 H   0  0  0  0  0  0  0  0  0  0  0  0
    5.6014    0.7416   -1.5020 H   0  0  0  0  0  0  0  0  0  0  0  0
    6.5100    1.6030    0.2695 C   0  0  0  0  0  0  0  0  0  0  0  0
    6.8359    1.3048    1.2796 H   0  0  0  0  0  0  0  0  0  0  0  0
    7.3888    2.0018   -0.2608 H   0  0  0  0  0  0  0  0  0  0  0  0
    5.7865    2.4268    0.3844 H   0  0  0  0  0  0  0  0  0  0  0  0
   -6.4754   -1.5525   -0.6769 C   0  0  0  0  0  0  0  0  0  0  0  0
   -7.3859   -2.0023   -0.2513 H   0  0  0  0  0  0  0  0  0  0  0  0
   -6.7355   -1.1451   -1.6678 H   0  0  0  0  0  0  0  0  0  0  0  0
   -5.7442   -2.3626   -0.8330 H   0  0  0  0  0  0  0  0  0  0  0  0
  1  5  1  0  0  0  0
  1  2  1  0  0  0  0
  3  2  1  0  0  0  0
  4  1  2  0  0  0  0
  5 13  1  0  0  0  0
  6  9  2  0  0  0  0
  7  8  1  0  0  0  0
  7  6  1  0  0  0  0
 10  6  1  0  0  0  0
 10 19  1  0  0  0  0
 10 17  1  0  0  0  0
 11  5  1  0  0  0  0
 12  5  1  0  0  0  0
 12 15  1  0  0  0  0
 14 12  1  0  0  0  0
 15 26  1  0  0  0  0
 15 25  1  0  0  0  0
 16 12  1  0  0  0  0
 18 10  1  0  0  0  0
 19 22  1  0  0  0  0
 19 21  1  0  0  0  0
 20 27  1  0  0  0  0
 20 19  1  0  0  0  0
 23 20  1  0  0  0  0
 24 20  1  0  0  0  0
 27 28  1  0  0  0  0
 27 29  1  0  0  0  0
 30 15  1  0  0  0  0
 30 33  1  0  0  0  0
 31 30  1  0  0  0  0
 32 30  1  0  0  0  0
 33 36  1  0  0  0  0
 33 34  1  0  0  0  0
 35 33  1  0  0  0  0
 37 38  1  0  0  0  0
 37 27  1  0  0  0  0
 39 37  1  0  0  0  0
 40 37  1  0  0  0  0
M  END
$$$$
