dimer_m062x_h_hexanoic.log
 OpenBabel08081914533D
Gaussian opt/gaussian/g09/g09 # opt freq m062x/6-31++g(d,p)
 40 38  0  0  0  0  0  0  0  0999 V2000
   -1.8999   -0.1688   -0.1998 C   0  0  0  0  0  0  0  0  0  0  0  0
   -1.1166   -1.2202   -0.2970 O   0  0  0  0  0  0  0  0  0  0  0  0
   -0.1538   -0.9464   -0.2277 H   0  0  0  0  0  0  0  0  0  0  0  0
   -1.4830    0.9754   -0.0457 O   0  0  0  0  0  0  0  0  0  0  0  0
   -3.3665   -0.4992   -0.2940 C   0  0  0  0  0  0  0  0  0  0  0  0
    1.8100    0.6730    0.0427 C   0  0  0  0  0  0  0  0  0  0  0  0
    1.0244    1.7221    0.1447 O   0  0  0  0  0  0  0  0  0  0  0  0
    0.0619    1.4467    0.0721 H   0  0  0  0  0  0  0  0  0  0  0  0
    1.3966   -0.4717   -0.1174 O   0  0  0  0  0  0  0  0  0  0  0  0
    3.2748    1.0077    0.1447 C   0  0  0  0  0  0  0  0  0  0  0  0
   -3.5774   -1.2230    0.5014 H   0  0  0  0  0  0  0  0  0  0  0  0
   -4.2680    0.7273   -0.2097 C   0  0  0  0  0  0  0  0  0  0  0  0
   -3.5161   -1.0412   -1.2367 H   0  0  0  0  0  0  0  0  0  0  0  0
   -4.1416    1.1999    0.7716 H   0  0  0  0  0  0  0  0  0  0  0  0
   -5.7439    0.3998   -0.4427 C   0  0  0  0  0  0  0  0  0  0  0  0
   -3.9295    1.4634   -0.9460 H   0  0  0  0  0  0  0  0  0  0  0  0
    3.4859    1.7692   -0.6160 H   0  0  0  0  0  0  0  0  0  0  0  0
    3.4225    1.5064    1.1108 H   0  0  0  0  0  0  0  0  0  0  0  0
    4.1920   -0.1988   -0.0025 C   0  0  0  0  0  0  0  0  0  0  0  0
    5.6651    0.1841    0.1207 C   0  0  0  0  0  0  0  0  0  0  0  0
    3.9345   -0.9450    0.7581 H   0  0  0  0  0  0  0  0  0  0  0  0
    4.0092   -0.6776   -0.9716 H   0  0  0  0  0  0  0  0  0  0  0  0
    5.8389    0.6650    1.0939 H   0  0  0  0  0  0  0  0  0  0  0  0
    6.6062   -1.0102   -0.0237 C   0  0  0  0  0  0  0  0  0  0  0  0
    5.9149    0.9356   -0.6420 H   0  0  0  0  0  0  0  0  0  0  0  0
   -5.8704   -0.0340   -1.4449 H   0  0  0  0  0  0  0  0  0  0  0  0
   -6.3155    1.3365   -0.4402 H   0  0  0  0  0  0  0  0  0  0  0  0
   -6.3505   -0.5474    0.5937 C   0  0  0  0  0  0  0  0  0  0  0  0
   -6.1543   -0.1526    1.5996 H   0  0  0  0  0  0  0  0  0  0  0  0
   -5.8576   -1.5260    0.5416 H   0  0  0  0  0  0  0  0  0  0  0  0
   -7.8538   -0.7333    0.3971 C   0  0  0  0  0  0  0  0  0  0  0  0
    6.4357   -1.4871   -0.9974 H   0  0  0  0  0  0  0  0  0  0  0  0
    6.3536   -1.7610    0.7360 H   0  0  0  0  0  0  0  0  0  0  0  0
    8.0760   -0.6177    0.1081 C   0  0  0  0  0  0  0  0  0  0  0  0
    8.3552    0.1125   -0.6589 H   0  0  0  0  0  0  0  0  0  0  0  0
    8.7349   -1.4839    0.0022 H   0  0  0  0  0  0  0  0  0  0  0  0
    8.2723   -0.1641    1.0854 H   0  0  0  0  0  0  0  0  0  0  0  0
   -8.3798    0.2226    0.4887 H   0  0  0  0  0  0  0  0  0  0  0  0
   -8.2744   -1.4214    1.1354 H   0  0  0  0  0  0  0  0  0  0  0  0
   -8.0685   -1.1368   -0.5982 H   0  0  0  0  0  0  0  0  0  0  0  0
  1  4  2  0  0  0  0
  2  3  1  0  0  0  0
  2  1  1  0  0  0  0
  5 12  1  0  0  0  0
  5  1  1  0  0  0  0
  5 11  1  0  0  0  0
  6  7  1  0  0  0  0
  6 10  1  0  0  0  0
  8  7  1  0  0  0  0
  9  6  2  0  0  0  0
 10 18  1  0  0  0  0
 12 14  1  0  0  0  0
 13  5  1  0  0  0  0
 15 27  1  0  0  0  0
 15 12  1  0  0  0  0
 15 28  1  0  0  0  0
 16 12  1  0  0  0  0
 17 10  1  0  0  0  0
 19 20  1  0  0  0  0
 19 10  1  0  0  0  0
 19 21  1  0  0  0  0
 20 23  1  0  0  0  0
 22 19  1  0  0  0  0
 24 34  1  0  0  0  0
 24 20  1  0  0  0  0
 24 33  1  0  0  0  0
 25 20  1  0  0  0  0
 26 15  1  0  0  0  0
 28 29  1  0  0  0  0
 30 28  1  0  0  0  0
 31 38  1  0  0  0  0
 31 28  1  0  0  0  0
 31 39  1  0  0  0  0
 32 24  1  0  0  0  0
 34 37  1  0  0  0  0
 35 34  1  0  0  0  0
 36 34  1  0  0  0  0
 40 31  1  0  0  0  0
M  END
$$$$
