dimer_wb97xd_qh_propanoic.log
 OpenBabel08081914533D
Gaussian opt/gaussian/g09/g09 # opt=(maxcycle=10000) scf=(maxcycle=10000) freq w
 22 20  0  0  0  0  0  0  0  0999 V2000
    1.8935    0.3272    0.0033 C   0  0  0  0  0  0  0  0  0  0  0  0
    1.1629    1.4225    0.0104 O   0  0  0  0  0  0  0  0  0  0  0  0
    0.1916    1.1949    0.0360 H   0  0  0  0  0  0  0  0  0  0  0  0
    1.4189   -0.8047    0.0394 O   0  0  0  0  0  0  0  0  0  0  0  0
    3.3742    0.5990   -0.0672 C   0  0  0  0  0  0  0  0  0  0  0  0
   -1.8936   -0.3273    0.0039 C   0  0  0  0  0  0  0  0  0  0  0  0
   -1.1631   -1.4228    0.0103 O   0  0  0  0  0  0  0  0  0  0  0  0
   -0.1918   -1.1953    0.0356 H   0  0  0  0  0  0  0  0  0  0  0  0
   -1.4188    0.8044    0.0411 O   0  0  0  0  0  0  0  0  0  0  0  0
   -3.3742   -0.5989   -0.0666 C   0  0  0  0  0  0  0  0  0  0  0  0
    3.5485    1.1381   -1.0058 H   0  0  0  0  0  0  0  0  0  0  0  0
    4.2322   -0.6562    0.0171 C   0  0  0  0  0  0  0  0  0  0  0  0
    3.6146    1.3107    0.7298 H   0  0  0  0  0  0  0  0  0  0  0  0
    3.9759   -1.3606   -0.7775 H   0  0  0  0  0  0  0  0  0  0  0  0
    4.0869   -1.1682    0.9715 H   0  0  0  0  0  0  0  0  0  0  0  0
    5.2897   -0.3964   -0.0773 H   0  0  0  0  0  0  0  0  0  0  0  0
   -3.6150   -1.3094    0.7313 H   0  0  0  0  0  0  0  0  0  0  0  0
   -3.5486   -1.1392   -1.0046 H   0  0  0  0  0  0  0  0  0  0  0  0
   -4.2319    0.6567    0.0161 C   0  0  0  0  0  0  0  0  0  0  0  0
   -4.0863    1.1702    0.9696 H   0  0  0  0  0  0  0  0  0  0  0  0
   -5.2895    0.3969   -0.0776 H   0  0  0  0  0  0  0  0  0  0  0  0
   -3.9758    1.3597   -0.7798 H   0  0  0  0  0  0  0  0  0  0  0  0
  1  2  1  0  0  0  0
  1  4  2  0  0  0  0
  2  3  1  0  0  0  0
  5  1  1  0  0  0  0
  5 12  1  0  0  0  0
  5 13  1  0  0  0  0
  6  7  1  0  0  0  0
  6  9  2  0  0  0  0
  7  8  1  0  0  0  0
 10  6  1  0  0  0  0
 10 19  1  0  0  0  0
 10 17  1  0  0  0  0
 11  5  1  0  0  0  0
 12 15  1  0  0  0  0
 14 12  1  0  0  0  0
 16 12  1  0  0  0  0
 18 10  1  0  0  0  0
 19 20  1  0  0  0  0
 21 19  1  0  0  0  0
 22 19  1  0  0  0  0
M  END
$$$$
