dimer_pw91_qh_suberic.log
 OpenBabel08081914533D
Gaussian software/kemi/g16/avx2/g16/g16 # opt freq pw91pw91 6-31++g(d,p) G09Defa
 52 50  0  0  0  0  0  0  0  0999 V2000
    3.5776    1.4943   -0.4102 C   0  0  0  0  0  0  0  0  0  0  0  0
    3.5080    2.9709   -0.7235 C   0  0  0  0  0  0  0  0  0  0  0  0
    3.9103    3.5477    0.1227 H   0  0  0  0  0  0  0  0  0  0  0  0
    4.1357    3.1507   -1.6096 H   0  0  0  0  0  0  0  0  0  0  0  0
    2.0507    3.3962   -1.0321 C   0  0  0  0  0  0  0  0  0  0  0  0
    1.6525    2.7293   -1.8164 H   0  0  0  0  0  0  0  0  0  0  0  0
    2.0713    4.4109   -1.4651 H   0  0  0  0  0  0  0  0  0  0  0  0
    1.1257    3.3797    0.1946 C   0  0  0  0  0  0  0  0  0  0  0  0
    1.4407    4.1725    0.8985 H   0  0  0  0  0  0  0  0  0  0  0  0
    1.2431    2.4275    0.7424 H   0  0  0  0  0  0  0  0  0  0  0  0
   -0.3547    3.5581   -0.1717 C   0  0  0  0  0  0  0  0  0  0  0  0
   -0.6732    2.7013   -0.7914 H   0  0  0  0  0  0  0  0  0  0  0  0
   -0.4807    4.4537   -0.8084 H   0  0  0  0  0  0  0  0  0  0  0  0
   -1.2653    3.6846    1.0593 C   0  0  0  0  0  0  0  0  0  0  0  0
   -1.0172    2.9029    1.7986 H   0  0  0  0  0  0  0  0  0  0  0  0
   -1.0785    4.6512    1.5576 H   0  0  0  0  0  0  0  0  0  0  0  0
   -2.7797    3.5944    0.7370 C   0  0  0  0  0  0  0  0  0  0  0  0
   -3.0327    4.2619   -0.1008 H   0  0  0  0  0  0  0  0  0  0  0  0
   -3.3611    3.8913    1.6221 H   0  0  0  0  0  0  0  0  0  0  0  0
   -3.1707    2.1762    0.3946 C   0  0  0  0  0  0  0  0  0  0  0  0
   -3.3914    1.3314    1.2884 O   0  0  0  0  0  0  0  0  0  0  0  0
    3.4647    0.6360   -1.3113 O   0  0  0  0  0  0  0  0  0  0  0  0
   -3.2062    1.9030   -0.9014 O   0  0  0  0  0  0  0  0  0  0  0  0
   -3.3638    0.8909   -1.0489 H   0  0  0  0  0  0  0  0  0  0  0  0
    3.7158    1.2001    0.8738 O   0  0  0  0  0  0  0  0  0  0  0  0
    3.6383    0.1781    1.0160 H   0  0  0  0  0  0  0  0  0  0  0  0
    3.1707   -2.1762    0.3945 C   0  0  0  0  0  0  0  0  0  0  0  0
    2.7797   -3.5944    0.7369 C   0  0  0  0  0  0  0  0  0  0  0  0
    3.0327   -4.2619   -0.1009 H   0  0  0  0  0  0  0  0  0  0  0  0
    3.3611   -3.8913    1.6221 H   0  0  0  0  0  0  0  0  0  0  0  0
    1.2654   -3.6846    1.0593 C   0  0  0  0  0  0  0  0  0  0  0  0
    1.0172   -2.9030    1.7986 H   0  0  0  0  0  0  0  0  0  0  0  0
    1.0785   -4.6513    1.5575 H   0  0  0  0  0  0  0  0  0  0  0  0
    0.3547   -3.5581   -0.1717 C   0  0  0  0  0  0  0  0  0  0  0  0
    0.4807   -4.4536   -0.8085 H   0  0  0  0  0  0  0  0  0  0  0  0
    0.6732   -2.7012   -0.7913 H   0  0  0  0  0  0  0  0  0  0  0  0
   -1.1257   -3.3797    0.1946 C   0  0  0  0  0  0  0  0  0  0  0  0
   -1.2431   -2.4275    0.7425 H   0  0  0  0  0  0  0  0  0  0  0  0
   -1.4407   -4.1725    0.8985 H   0  0  0  0  0  0  0  0  0  0  0  0
   -2.0507   -3.3962   -1.0321 C   0  0  0  0  0  0  0  0  0  0  0  0
   -2.0712   -4.4109   -1.4651 H   0  0  0  0  0  0  0  0  0  0  0  0
   -1.6525   -2.7293   -1.8164 H   0  0  0  0  0  0  0  0  0  0  0  0
   -3.5080   -2.9709   -0.7235 C   0  0  0  0  0  0  0  0  0  0  0  0
   -3.9103   -3.5477    0.1228 H   0  0  0  0  0  0  0  0  0  0  0  0
   -4.1357   -3.1507   -1.6096 H   0  0  0  0  0  0  0  0  0  0  0  0
   -3.5776   -1.4943   -0.4102 C   0  0  0  0  0  0  0  0  0  0  0  0
   -3.4645   -0.6360   -1.3113 O   0  0  0  0  0  0  0  0  0  0  0  0
    3.3912   -1.3313    1.2884 O   0  0  0  0  0  0  0  0  0  0  0  0
   -3.7159   -1.2000    0.8738 O   0  0  0  0  0  0  0  0  0  0  0  0
   -3.6385   -0.1781    1.0160 H   0  0  0  0  0  0  0  0  0  0  0  0
    3.2063   -1.9030   -0.9014 O   0  0  0  0  0  0  0  0  0  0  0  0
    3.3639   -0.8909   -1.0489 H   0  0  0  0  0  0  0  0  0  0  0  0
  1 25  1  0  0  0  0
  2  1  1  0  0  0  0
  2  3  1  0  0  0  0
  4  2  1  0  0  0  0
  5  2  1  0  0  0  0
  5  8  1  0  0  0  0
  6  5  1  0  0  0  0
  7  5  1  0  0  0  0
  8 10  1  0  0  0  0
  8  9  1  0  0  0  0
 11  8  1  0  0  0  0
 11 14  1  0  0  0  0
 12 11  1  0  0  0  0
 13 11  1  0  0  0  0
 14 16  1  0  0  0  0
 14 15  1  0  0  0  0
 17 14  1  0  0  0  0
 17 19  1  0  0  0  0
 18 17  1  0  0  0  0
 20 17  1  0  0  0  0
 20 21  2  0  0  0  0
 22  1  2  0  0  0  0
 23 20  1  0  0  0  0
 24 23  1  0  0  0  0
 25 26  1  0  0  0  0
 27 28  1  0  0  0  0
 27 48  2  0  0  0  0
 28 31  1  0  0  0  0
 28 30  1  0  0  0  0
 29 28  1  0  0  0  0
 31 33  1  0  0  0  0
 31 32  1  0  0  0  0
 34 37  1  0  0  0  0
 34 31  1  0  0  0  0
 35 34  1  0  0  0  0
 36 34  1  0  0  0  0
 37 38  1  0  0  0  0
 37 39  1  0  0  0  0
 40 43  1  0  0  0  0
 40 37  1  0  0  0  0
 41 40  1  0  0  0  0
 42 40  1  0  0  0  0
 43 46  1  0  0  0  0
 43 44  1  0  0  0  0
 45 43  1  0  0  0  0
 46 49  1  0  0  0  0
 47 46  2  0  0  0  0
 49 50  1  0  0  0  0
 51 27  1  0  0  0  0
 52 51  1  0  0  0  0
M  END
$$$$
