dimer_m062x_qh_oxalic.log
 OpenBabel08081914533D
Gaussian opt/gaussian/g16/sse4/g16/g16 # opt freq m062x 6-31++g(d,p) G09Defaults
 16 14  0  0  0  0  0  0  0  0999 V2000
   -3.4170   -0.0760   -0.0000 C   0  0  0  0  0  0  0  0  0  0  0  0
   -1.8769   -0.0548   -0.0001 C   0  0  0  0  0  0  0  0  0  0  0  0
   -1.2587    0.9952    0.0001 O   0  0  0  0  0  0  0  0  0  0  0  0
   -4.0632   -1.0857   -0.0003 O   0  0  0  0  0  0  0  0  0  0  0  0
   -1.3732   -1.2534    0.0000 O   0  0  0  0  0  0  0  0  0  0  0  0
   -0.3739   -1.2044    0.0002 H   0  0  0  0  0  0  0  0  0  0  0  0
   -3.9066    1.1621    0.0004 O   0  0  0  0  0  0  0  0  0  0  0  0
   -4.8745    1.0970    0.0004 H   0  0  0  0  0  0  0  0  0  0  0  0
    1.8769    0.0549   -0.0003 C   0  0  0  0  0  0  0  0  0  0  0  0
    3.4170    0.0760   -0.0001 C   0  0  0  0  0  0  0  0  0  0  0  0
    4.0632    1.0857   -0.0003 O   0  0  0  0  0  0  0  0  0  0  0  0
    1.2586   -0.9951   -0.0001 O   0  0  0  0  0  0  0  0  0  0  0  0
    3.9065   -1.1622    0.0003 O   0  0  0  0  0  0  0  0  0  0  0  0
    4.8744   -1.0971    0.0004 H   0  0  0  0  0  0  0  0  0  0  0  0
    1.3733    1.2534    0.0000 O   0  0  0  0  0  0  0  0  0  0  0  0
    0.3740    1.2045    0.0002 H   0  0  0  0  0  0  0  0  0  0  0  0
  1  7  1  0  0  0  0
  2  1  1  0  0  0  0
  2  5  1  0  0  0  0
  2  3  2  0  0  0  0
  4  1  2  0  0  0  0
  5  6  1  0  0  0  0
  7  8  1  0  0  0  0
  9 12  2  0  0  0  0
  9 10  1  0  0  0  0
  9 15  1  0  0  0  0
 10 13  1  0  0  0  0
 11 10  2  0  0  0  0
 13 14  1  0  0  0  0
 15 16  1  0  0  0  0
M  END
$$$$
