dimer_m062x_qh_pentanoic.log
 OpenBabel08081914533D
Gaussian opt/gaussian/g09/g09 # opt freq m062x/6-31++g(d,p)
 34 32  0  0  0  0  0  0  0  0999 V2000
    1.8002   -0.6200   -0.4028 C   0  0  0  0  0  0  0  0  0  0  0  0
    0.9789   -1.3731    0.2927 O   0  0  0  0  0  0  0  0  0  0  0  0
    0.0779   -0.9349    0.3653 H   0  0  0  0  0  0  0  0  0  0  0  0
    1.4862    0.4720   -0.8706 O   0  0  0  0  0  0  0  0  0  0  0  0
    3.1630   -1.2299   -0.6120 C   0  0  0  0  0  0  0  0  0  0  0  0
   -1.6757    0.8835    0.0047 C   0  0  0  0  0  0  0  0  0  0  0  0
   -0.8531    1.6344   -0.6916 O   0  0  0  0  0  0  0  0  0  0  0  0
    0.0480    1.1956   -0.7627 H   0  0  0  0  0  0  0  0  0  0  0  0
   -1.3634   -0.2066    0.4772 O   0  0  0  0  0  0  0  0  0  0  0  0
   -3.0374    1.5011    0.2019 C   0  0  0  0  0  0  0  0  0  0  0  0
    3.0572   -1.9126   -1.4649 H   0  0  0  0  0  0  0  0  0  0  0  0
    4.2484   -0.1918   -0.8915 C   0  0  0  0  0  0  0  0  0  0  0  0
    3.3950   -1.8577    0.2525 H   0  0  0  0  0  0  0  0  0  0  0  0
    5.1757   -0.7249   -1.1338 H   0  0  0  0  0  0  0  0  0  0  0  0
    4.5043    0.7665    0.2759 C   0  0  0  0  0  0  0  0  0  0  0  0
    3.9636    0.3841   -1.7774 H   0  0  0  0  0  0  0  0  0  0  0  0
   -2.8956    2.3111    0.9284 H   0  0  0  0  0  0  0  0  0  0  0  0
   -3.3254    1.9838   -0.7383 H   0  0  0  0  0  0  0  0  0  0  0  0
   -4.0932    0.5099    0.6793 C   0  0  0  0  0  0  0  0  0  0  0  0
   -4.4739   -0.5193   -0.3846 C   0  0  0  0  0  0  0  0  0  0  0  0
   -3.7234   -0.0077    1.5717 H   0  0  0  0  0  0  0  0  0  0  0  0
   -4.9873    1.0699    0.9789 H   0  0  0  0  0  0  0  0  0  0  0  0
   -3.5786   -1.0787   -0.6795 H   0  0  0  0  0  0  0  0  0  0  0  0
   -4.8327    0.0047   -1.2805 H   0  0  0  0  0  0  0  0  0  0  0  0
    3.5984    1.3541    0.4648 H   0  0  0  0  0  0  0  0  0  0  0  0
    5.2756    1.4818   -0.0311 H   0  0  0  0  0  0  0  0  0  0  0  0
   -5.5459   -1.4877    0.1093 C   0  0  0  0  0  0  0  0  0  0  0  0
   -6.4575   -0.9510    0.3929 H   0  0  0  0  0  0  0  0  0  0  0  0
   -5.8117   -2.2176   -0.6603 H   0  0  0  0  0  0  0  0  0  0  0  0
   -5.1959   -2.0388    0.9881 H   0  0  0  0  0  0  0  0  0  0  0  0
    4.9486    0.0656    1.5599 C   0  0  0  0  0  0  0  0  0  0  0  0
    5.2212    0.7936    2.3289 H   0  0  0  0  0  0  0  0  0  0  0  0
    4.1560   -0.5640    1.9768 H   0  0  0  0  0  0  0  0  0  0  0  0
    5.8213   -0.5718    1.3777 H   0  0  0  0  0  0  0  0  0  0  0  0
  1  2  1  0  0  0  0
  2  3  1  0  0  0  0
  4  1  2  0  0  0  0
  5  1  1  0  0  0  0
  5 13  1  0  0  0  0
  6 10  1  0  0  0  0
  6  9  2  0  0  0  0
  7  6  1  0  0  0  0
  8  7  1  0  0  0  0
 10 19  1  0  0  0  0
 10 17  1  0  0  0  0
 11  5  1  0  0  0  0
 12  5  1  0  0  0  0
 12 15  1  0  0  0  0
 14 12  1  0  0  0  0
 15 25  1  0  0  0  0
 15 31  1  0  0  0  0
 16 12  1  0  0  0  0
 18 10  1  0  0  0  0
 19 22  1  0  0  0  0
 19 21  1  0  0  0  0
 20 27  1  0  0  0  0
 20 19  1  0  0  0  0
 23 20  1  0  0  0  0
 24 20  1  0  0  0  0
 26 15  1  0  0  0  0
 27 28  1  0  0  0  0
 27 30  1  0  0  0  0
 29 27  1  0  0  0  0
 31 33  1  0  0  0  0
 31 32  1  0  0  0  0
 34 31  1  0  0  0  0
M  END
$$$$
