dimer_pw91_qh_butanoic.log
 OpenBabel08081914533D
Gaussian opt/gaussian/g09/g09 # opt freq pw91pw91 6-31++g(d,p)
 28 26  0  0  0  0  0  0  0  0999 V2000
   -1.8623   -0.3606    0.0013 C   0  0  0  0  0  0  0  0  0  0  0  0
   -1.0868   -1.4356    0.0009 O   0  0  0  0  0  0  0  0  0  0  0  0
   -0.0913   -1.1632    0.0005 H   0  0  0  0  0  0  0  0  0  0  0  0
   -1.4286    0.8094    0.0007 O   0  0  0  0  0  0  0  0  0  0  0  0
   -3.3404   -0.6796    0.0030 C   0  0  0  0  0  0  0  0  0  0  0  0
    1.8623    0.3607    0.0010 C   0  0  0  0  0  0  0  0  0  0  0  0
    1.0869    1.4357    0.0010 O   0  0  0  0  0  0  0  0  0  0  0  0
    0.0912    1.1632    0.0008 H   0  0  0  0  0  0  0  0  0  0  0  0
    1.4286   -0.8092    0.0000 O   0  0  0  0  0  0  0  0  0  0  0  0
    3.3405    0.6797    0.0026 C   0  0  0  0  0  0  0  0  0  0  0  0
   -3.5349   -1.3179    0.8838 H   0  0  0  0  0  0  0  0  0  0  0  0
   -4.2568    0.5467   -0.0044 C   0  0  0  0  0  0  0  0  0  0  0  0
   -3.5352   -1.3296   -0.8689 H   0  0  0  0  0  0  0  0  0  0  0  0
   -4.0262    1.1758    0.8707 H   0  0  0  0  0  0  0  0  0  0  0  0
   -5.7401    0.1596   -0.0012 C   0  0  0  0  0  0  0  0  0  0  0  0
   -4.0272    1.1644   -0.8880 H   0  0  0  0  0  0  0  0  0  0  0  0
    3.5353    1.3290   -0.8698 H   0  0  0  0  0  0  0  0  0  0  0  0
    3.5350    1.3186    0.8829 H   0  0  0  0  0  0  0  0  0  0  0  0
    4.2568   -0.5467   -0.0041 C   0  0  0  0  0  0  0  0  0  0  0  0
    5.7400   -0.1599   -0.0010 C   0  0  0  0  0  0  0  0  0  0  0  0
    4.0260   -1.1753    0.8715 H   0  0  0  0  0  0  0  0  0  0  0  0
    4.0270   -1.1649   -0.8872 H   0  0  0  0  0  0  0  0  0  0  0  0
    6.0001    0.4321    0.8920 H   0  0  0  0  0  0  0  0  0  0  0  0
    6.3831   -1.0531   -0.0065 H   0  0  0  0  0  0  0  0  0  0  0  0
    6.0008    0.4436   -0.8861 H   0  0  0  0  0  0  0  0  0  0  0  0
   -6.0000   -0.4322    0.8920 H   0  0  0  0  0  0  0  0  0  0  0  0
   -6.0008   -0.4441   -0.8861 H   0  0  0  0  0  0  0  0  0  0  0  0
   -6.3832    1.0527   -0.0068 H   0  0  0  0  0  0  0  0  0  0  0  0
  1  5  1  0  0  0  0
  2  1  1  0  0  0  0
  3  2  1  0  0  0  0
  4  1  2  0  0  0  0
  5 11  1  0  0  0  0
  6  7  1  0  0  0  0
  6 10  1  0  0  0  0
  8  7  1  0  0  0  0
  9  6  2  0  0  0  0
 10 18  1  0  0  0  0
 12 15  1  0  0  0  0
 12  5  1  0  0  0  0
 12 14  1  0  0  0  0
 13  5  1  0  0  0  0
 15 26  1  0  0  0  0
 16 12  1  0  0  0  0
 17 10  1  0  0  0  0
 19 20  1  0  0  0  0
 19 10  1  0  0  0  0
 19 21  1  0  0  0  0
 20 23  1  0  0  0  0
 22 19  1  0  0  0  0
 24 20  1  0  0  0  0
 25 20  1  0  0  0  0
 27 15  1  0  0  0  0
 28 15  1  0  0  0  0
M  END
$$$$
