monomer_wb97xd_h_hexanoic.log
 OpenBabel08081914533D
Gaussian groups/kemi/kmacke/programs/G09D/g09/g09 # opt freq wb97xd 6-31++g(d,p)
 20 19  0  0  0  0  0  0  0  0999 V2000
    2.1976   -0.0668   -0.0303 C   0  0  0  0  0  0  0  0  0  0  0  0
    0.7336   -0.3246    0.2165 C   0  0  0  0  0  0  0  0  0  0  0  0
    0.6373   -0.7235    1.2346 H   0  0  0  0  0  0  0  0  0  0  0  0
    0.4330   -1.1406   -0.4501 H   0  0  0  0  0  0  0  0  0  0  0  0
   -0.1373    0.9139    0.0263 C   0  0  0  0  0  0  0  0  0  0  0  0
    0.2814    1.7347    0.6169 H   0  0  0  0  0  0  0  0  0  0  0  0
   -0.0808    1.2349   -1.0204 H   0  0  0  0  0  0  0  0  0  0  0  0
   -1.5995    0.6924    0.4222 C   0  0  0  0  0  0  0  0  0  0  0  0
   -2.1328    1.6453    0.3133 H   0  0  0  0  0  0  0  0  0  0  0  0
   -1.6559    0.4323    1.4888 H   0  0  0  0  0  0  0  0  0  0  0  0
    2.9340   -1.1893    0.1155 O   0  0  0  0  0  0  0  0  0  0  0  0
    3.8551   -0.9474   -0.0542 H   0  0  0  0  0  0  0  0  0  0  0  0
    2.6981    0.9940   -0.3237 O   0  0  0  0  0  0  0  0  0  0  0  0
   -2.3298   -0.3762   -0.3946 C   0  0  0  0  0  0  0  0  0  0  0  0
   -2.2078   -0.1579   -1.4640 H   0  0  0  0  0  0  0  0  0  0  0  0
   -1.8686   -1.3572   -0.2258 H   0  0  0  0  0  0  0  0  0  0  0  0
   -3.8170   -0.4593   -0.0541 C   0  0  0  0  0  0  0  0  0  0  0  0
   -4.3199    0.4922   -0.2585 H   0  0  0  0  0  0  0  0  0  0  0  0
   -3.9637   -0.6894    1.0070 H   0  0  0  0  0  0  0  0  0  0  0  0
   -4.3192   -1.2367   -0.6376 H   0  0  0  0  0  0  0  0  0  0  0  0
  1 11  1  0  0  0  0
  1  2  1  0  0  0  0
  2  3  1  0  0  0  0
  4  2  1  0  0  0  0
  5  2  1  0  0  0  0
  5  8  1  0  0  0  0
  5  6  1  0  0  0  0
  7  5  1  0  0  0  0
  8 10  1  0  0  0  0
  9  8  1  0  0  0  0
 12 11  1  0  0  0  0
 13  1  2  0  0  0  0
 14 16  1  0  0  0  0
 14 17  1  0  0  0  0
 14  8  1  0  0  0  0
 15 14  1  0  0  0  0
 17 19  1  0  0  0  0
 18 17  1  0  0  0  0
 20 17  1  0  0  0  0
M  END
$$$$
