monomer_wb97xd_qh_formic.log
 OpenBabel08081914533D
Gaussian groups/kemi/kmacke/programs/G09D/g09/g09 # opt freq wb97xd 6-31++g(d,p)
  5  4  0  0  0  0  0  0  0  0999 V2000
    0.0000    0.4224    0.0000 C   0  0  0  0  0  0  0  0  0  0  0  0
   -0.3686    1.4558    0.0000 H   0  0  0  0  0  0  0  0  0  0  0  0
   -1.0299   -0.4338    0.0000 O   0  0  0  0  0  0  0  0  0  0  0  0
   -0.6688   -1.3330    0.0000 H   0  0  0  0  0  0  0  0  0  0  0  0
    1.1595    0.1016    0.0000 O   0  0  0  0  0  0  0  0  0  0  0  0
  1  2  1  0  0  0  0
  1  3  1  0  0  0  0
  1  5  2  0  0  0  0
  3  4  1  0  0  0  0
M  END
$$$$
