monomer_m062x_qh_pimelic.log
 OpenBabel08081914533D
Gaussian software/kemi/g16/avx2/g16/g16 # opt freq m062x 6-31++g(d,p) G09Default
 23 22  0  0  0  0  0  0  0  0999 V2000
   -3.5360   -0.1429    0.0599 C   0  0  0  0  0  0  0  0  0  0  0  0
   -2.1434   -0.4571   -0.4219 C   0  0  0  0  0  0  0  0  0  0  0  0
   -1.8997   -1.4739   -0.0908 H   0  0  0  0  0  0  0  0  0  0  0  0
   -2.1771   -0.4990   -1.5178 H   0  0  0  0  0  0  0  0  0  0  0  0
   -1.1098    0.5494    0.0660 C   0  0  0  0  0  0  0  0  0  0  0  0
   -1.1113    0.5649    1.1619 H   0  0  0  0  0  0  0  0  0  0  0  0
   -1.4067    1.5553   -0.2536 H   0  0  0  0  0  0  0  0  0  0  0  0
    0.2915    0.2251   -0.4451 C   0  0  0  0  0  0  0  0  0  0  0  0
    0.5778   -0.7818   -0.1166 H   0  0  0  0  0  0  0  0  0  0  0  0
    0.2884    0.2153   -1.5448 H   0  0  0  0  0  0  0  0  0  0  0  0
    1.3341    1.2282    0.0469 C   0  0  0  0  0  0  0  0  0  0  0  0
    1.3321    1.2464    1.1426 H   0  0  0  0  0  0  0  0  0  0  0  0
    1.0609    2.2340   -0.2930 H   0  0  0  0  0  0  0  0  0  0  0  0
    2.7427    0.9111   -0.4435 C   0  0  0  0  0  0  0  0  0  0  0  0
    2.7751    0.7805   -1.5312 H   0  0  0  0  0  0  0  0  0  0  0  0
    3.4396    1.7267   -0.2157 H   0  0  0  0  0  0  0  0  0  0  0  0
    3.3179   -0.3300    0.1933 C   0  0  0  0  0  0  0  0  0  0  0  0
    2.8533   -0.9236    1.1361 O   0  0  0  0  0  0  0  0  0  0  0  0
   -3.8540    0.8038    0.7372 O   0  0  0  0  0  0  0  0  0  0  0  0
    4.4638   -0.7157   -0.4051 O   0  0  0  0  0  0  0  0  0  0  0  0
    4.7876   -1.4970    0.0690 H   0  0  0  0  0  0  0  0  0  0  0  0
   -4.4320   -1.0616   -0.3596 O   0  0  0  0  0  0  0  0  0  0  0  0
   -5.2982   -0.7982   -0.0128 H   0  0  0  0  0  0  0  0  0  0  0  0
  1 19  2  0  0  0  0
  2  3  1  0  0  0  0
  2  1  1  0  0  0  0
  2  5  1  0  0  0  0
  4  2  1  0  0  0  0
  5  6  1  0  0  0  0
  7  5  1  0  0  0  0
  8  9  1  0  0  0  0
  8 11  1  0  0  0  0
  8  5  1  0  0  0  0
 10  8  1  0  0  0  0
 11 12  1  0  0  0  0
 13 11  1  0  0  0  0
 14 16  1  0  0  0  0
 14 11  1  0  0  0  0
 14 17  1  0  0  0  0
 15 14  1  0  0  0  0
 17 18  2  0  0  0  0
 20 21  1  0  0  0  0
 20 17  1  0  0  0  0
 22 23  1  0  0  0  0
 22  1  1  0  0  0  0
M  END
$$$$
