monomer_wb97xd_qh_malonic.log
 OpenBabel08081914533D
Gaussian groups/kemi/kmacke/programs/G09D/g09/g09 # opt freq wb97xd 6-31++g(d,p)
 11 10  0  0  0  0  0  0  0  0999 V2000
   -0.0000   -0.0020    0.9597 C   0  0  0  0  0  0  0  0  0  0  0  0
    0.0421    0.8853    1.5948 H   0  0  0  0  0  0  0  0  0  0  0  0
   -0.0423   -0.8916    1.5915 H   0  0  0  0  0  0  0  0  0  0  0  0
    1.2682   -0.0374    0.1344 C   0  0  0  0  0  0  0  0  0  0  0  0
   -1.2680    0.0364    0.1341 C   0  0  0  0  0  0  0  0  0  0  0  0
    2.2292    0.6693    0.3096 O   0  0  0  0  0  0  0  0  0  0  0  0
   -2.2294   -0.6703    0.3069 O   0  0  0  0  0  0  0  0  0  0  0  0
    1.2180   -0.9940   -0.8086 O   0  0  0  0  0  0  0  0  0  0  0  0
    2.0551   -0.9710   -1.2933 H   0  0  0  0  0  0  0  0  0  0  0  0
   -1.2179    0.9973   -0.8045 O   0  0  0  0  0  0  0  0  0  0  0  0
   -2.0552    0.9767   -1.2890 H   0  0  0  0  0  0  0  0  0  0  0  0
  1  3  1  0  0  0  0
  1  2  1  0  0  0  0
  4  6  2  0  0  0  0
  4  1  1  0  0  0  0
  5  7  2  0  0  0  0
  5  1  1  0  0  0  0
  8  4  1  0  0  0  0
  9  8  1  0  0  0  0
 10  5  1  0  0  0  0
 11 10  1  0  0  0  0
M  END
$$$$
