monomer_m062x_qh_propanoic.log
 OpenBabel08081914533D
Gaussian software/kemi/g16/avx2/g16/g16 # opt freq m062x 6-31++g(d,p) G09Default
 11 10  0  0  0  0  0  0  0  0999 V2000
   -0.5590    0.1008   -0.0001 C   0  0  0  0  0  0  0  0  0  0  0  0
    0.6888   -0.7453   -0.0000 C   0  0  0  0  0  0  0  0  0  0  0  0
    0.6356   -1.4035   -0.8743 H   0  0  0  0  0  0  0  0  0  0  0  0
    0.6355   -1.4035    0.8743 H   0  0  0  0  0  0  0  0  0  0  0  0
    1.9576    0.0959    0.0000 C   0  0  0  0  0  0  0  0  0  0  0  0
    1.9949    0.7405   -0.8808 H   0  0  0  0  0  0  0  0  0  0  0  0
    2.8404   -0.5472    0.0000 H   0  0  0  0  0  0  0  0  0  0  0  0
    1.9948    0.7406    0.8808 H   0  0  0  0  0  0  0  0  0  0  0  0
   -0.5962    1.3067   -0.0000 O   0  0  0  0  0  0  0  0  0  0  0  0
   -1.6777   -0.6549    0.0000 O   0  0  0  0  0  0  0  0  0  0  0  0
   -2.4345   -0.0491    0.0000 H   0  0  0  0  0  0  0  0  0  0  0  0
  1  2  1  0  0  0  0
  1  9  2  0  0  0  0
  1 10  1  0  0  0  0
  2  5  1  0  0  0  0
  2  4  1  0  0  0  0
  3  2  1  0  0  0  0
  5  7  1  0  0  0  0
  5  8  1  0  0  0  0
  6  5  1  0  0  0  0
 10 11  1  0  0  0  0
M  END
$$$$
