monomer_pw91_h_formic.log
 OpenBabel08081914533D
Gaussian software/kemi/g16/avx/g16/g16 # opt freq pw91pw91 6-31++g(d,p) G09Defau
  5  4  0  0  0  0  0  0  0  0999 V2000
    0.0000    0.4252    0.0000 C   0  0  0  0  0  0  0  0  0  0  0  0
   -0.3823    1.4630    0.0000 H   0  0  0  0  0  0  0  0  0  0  0  0
   -1.0433   -0.4409   -0.0000 O   0  0  0  0  0  0  0  0  0  0  0  0
   -0.6610   -1.3464   -0.0000 H   0  0  0  0  0  0  0  0  0  0  0  0
    1.1737    0.1074    0.0000 O   0  0  0  0  0  0  0  0  0  0  0  0
  1  2  1  0  0  0  0
  1  3  1  0  0  0  0
  1  5  2  0  0  0  0
  3  4  1  0  0  0  0
M  END
$$$$
