monomer_m062x_qh_butanoic.log
 OpenBabel08081914533D
Gaussian software/kemi/g16/avx2/g16/g16 # opt freq m062x 6-31++g(d,p) G09Default
 14 13  0  0  0  0  0  0  0  0999 V2000
    0.9580    0.0905   -0.0840 C   0  0  0  0  0  0  0  0  0  0  0  0
   -0.1165   -0.9654   -0.1697 C   0  0  0  0  0  0  0  0  0  0  0  0
   -0.1327   -1.5117    0.7801 H   0  0  0  0  0  0  0  0  0  0  0  0
    0.2186   -1.6832   -0.9286 H   0  0  0  0  0  0  0  0  0  0  0  0
   -1.4863   -0.3879   -0.5125 C   0  0  0  0  0  0  0  0  0  0  0  0
   -1.3974    0.2219   -1.4172 H   0  0  0  0  0  0  0  0  0  0  0  0
   -2.1626   -1.2170   -0.7461 H   0  0  0  0  0  0  0  0  0  0  0  0
   -2.0676    0.4527    0.6226 C   0  0  0  0  0  0  0  0  0  0  0  0
   -1.4193    1.3046    0.8454 H   0  0  0  0  0  0  0  0  0  0  0  0
   -2.1774   -0.1448    1.5343 H   0  0  0  0  0  0  0  0  0  0  0  0
   -3.0540    0.8425    0.3576 H   0  0  0  0  0  0  0  0  0  0  0  0
    2.0907   -0.3891    0.4712 O   0  0  0  0  0  0  0  0  0  0  0  0
    2.7412    0.3299    0.4642 H   0  0  0  0  0  0  0  0  0  0  0  0
    0.8666    1.2289   -0.4747 O   0  0  0  0  0  0  0  0  0  0  0  0
  1 12  1  0  0  0  0
  2  1  1  0  0  0  0
  2  3  1  0  0  0  0
  4  2  1  0  0  0  0
  5  2  1  0  0  0  0
  5  8  1  0  0  0  0
  6  5  1  0  0  0  0
  7  5  1  0  0  0  0
  8  9  1  0  0  0  0
  8 10  1  0  0  0  0
 11  8  1  0  0  0  0
 13 12  1  0  0  0  0
 14  1  2  0  0  0  0
M  END
$$$$
