monomer_m062x_h_pentanoic.log
 OpenBabel08081914533D
Gaussian software/kemi/g16/avx2/g16/g16 # opt freq m062x 6-31++g(d,p) G09Default
 17 16  0  0  0  0  0  0  0  0999 V2000
   -1.3378   -0.0522   -0.0604 C   0  0  0  0  0  0  0  0  0  0  0  0
   -0.2964   -0.0415    1.0308 C   0  0  0  0  0  0  0  0  0  0  0  0
   -0.7966   -0.4152    1.9331 H   0  0  0  0  0  0  0  0  0  0  0  0
   -0.0330    0.9987    1.2453 H   0  0  0  0  0  0  0  0  0  0  0  0
    0.9248   -0.8949    0.6975 C   0  0  0  0  0  0  0  0  0  0  0  0
    1.5671   -0.9282    1.5860 H   0  0  0  0  0  0  0  0  0  0  0  0
    0.5941   -1.9194    0.4982 H   0  0  0  0  0  0  0  0  0  0  0  0
   -1.4079   -0.8467   -0.9666 O   0  0  0  0  0  0  0  0  0  0  0  0
   -2.2417    0.9380    0.0965 O   0  0  0  0  0  0  0  0  0  0  0  0
   -2.8928    0.8499   -0.6167 H   0  0  0  0  0  0  0  0  0  0  0  0
    1.7396   -0.3850   -0.4957 C   0  0  0  0  0  0  0  0  0  0  0  0
    1.1265   -0.4414   -1.4018 H   0  0  0  0  0  0  0  0  0  0  0  0
    2.5820   -1.0686   -0.6496 H   0  0  0  0  0  0  0  0  0  0  0  0
    2.2718    1.0365   -0.3117 C   0  0  0  0  0  0  0  0  0  0  0  0
    1.4639    1.7750   -0.2898 H   0  0  0  0  0  0  0  0  0  0  0  0
    2.9395    1.3136   -1.1321 H   0  0  0  0  0  0  0  0  0  0  0  0
    2.8346    1.1288    0.6243 H   0  0  0  0  0  0  0  0  0  0  0  0
  1  9  1  0  0  0  0
  1  2  1  0  0  0  0
  2  4  1  0  0  0  0
  2  3  1  0  0  0  0
  5  2  1  0  0  0  0
  5  6  1  0  0  0  0
  7  5  1  0  0  0  0
  8  1  2  0  0  0  0
 10  9  1  0  0  0  0
 11 14  1  0  0  0  0
 11  5  1  0  0  0  0
 12 11  1  0  0  0  0
 13 11  1  0  0  0  0
 14 15  1  0  0  0  0
 14 17  1  0  0  0  0
 16 14  1  0  0  0  0
M  END
$$$$
