monomer_m062x_h_succinic.log
 OpenBabel08081914533D
Gaussian software/kemi/g16/avx2/g16/g16 # opt freq m062x 6-31++g(d,p) G09Default
 14 13  0  0  0  0  0  0  0  0999 V2000
   -0.0821    0.0032   -1.9170 C   0  0  0  0  0  0  0  0  0  0  0  0
   -1.2645    0.0170   -2.1601 O   0  0  0  0  0  0  0  0  0  0  0  0
    0.8568   -0.0055   -2.8823 O   0  0  0  0  0  0  0  0  0  0  0  0
    0.3974    0.0010   -3.7361 H   0  0  0  0  0  0  0  0  0  0  0  0
    0.5315   -0.0070   -0.5421 C   0  0  0  0  0  0  0  0  0  0  0  0
    1.2017    0.8544   -0.4557 H   0  0  0  0  0  0  0  0  0  0  0  0
    1.1764   -0.8877   -0.4580 H   0  0  0  0  0  0  0  0  0  0  0  0
   -0.5315    0.0070    0.5421 C   0  0  0  0  0  0  0  0  0  0  0  0
   -1.1764    0.8877    0.4580 H   0  0  0  0  0  0  0  0  0  0  0  0
   -1.2017   -0.8544    0.4557 H   0  0  0  0  0  0  0  0  0  0  0  0
    0.0821   -0.0032    1.9170 C   0  0  0  0  0  0  0  0  0  0  0  0
   -0.8568    0.0055    2.8823 O   0  0  0  0  0  0  0  0  0  0  0  0
   -0.3974   -0.0010    3.7361 H   0  0  0  0  0  0  0  0  0  0  0  0
    1.2645   -0.0170    2.1601 O   0  0  0  0  0  0  0  0  0  0  0  0
  1  5  1  0  0  0  0
  2  1  2  0  0  0  0
  3  1  1  0  0  0  0
  4  3  1  0  0  0  0
  5  7  1  0  0  0  0
  5  6  1  0  0  0  0
  5  8  1  0  0  0  0
  8 11  1  0  0  0  0
  9  8  1  0  0  0  0
 10  8  1  0  0  0  0
 11 14  2  0  0  0  0
 11 12  1  0  0  0  0
 12 13  1  0  0  0  0
M  END
$$$$
