monomer_wb97xd_qh_pentanoic.log
 OpenBabel08081914533D
Gaussian groups/kemi/kmacke/programs/G09D/g09/g09 # opt freq wb97xd 6-31++g(d,p)
 17 16  0  0  0  0  0  0  0  0999 V2000
    1.4895   -0.1552   -0.0799 C   0  0  0  0  0  0  0  0  0  0  0  0
    0.5685    1.0359   -0.1804 C   0  0  0  0  0  0  0  0  0  0  0  0
    1.0145    1.7032   -0.9285 H   0  0  0  0  0  0  0  0  0  0  0  0
    0.6049    1.5802    0.7694 H   0  0  0  0  0  0  0  0  0  0  0  0
   -0.8636    0.6709   -0.5636 C   0  0  0  0  0  0  0  0  0  0  0  0
   -1.3980    1.5948   -0.8158 H   0  0  0  0  0  0  0  0  0  0  0  0
   -0.8477    0.0534   -1.4687 H   0  0  0  0  0  0  0  0  0  0  0  0
    1.2890   -1.2542   -0.5436 O   0  0  0  0  0  0  0  0  0  0  0  0
    2.6265    0.1440    0.5825 O   0  0  0  0  0  0  0  0  0  0  0  0
    3.1764   -0.6520    0.5765 H   0  0  0  0  0  0  0  0  0  0  0  0
   -1.6203   -0.0642    0.5440 C   0  0  0  0  0  0  0  0  0  0  0  0
   -1.6276    0.5573    1.4496 H   0  0  0  0  0  0  0  0  0  0  0  0
   -1.0849   -0.9865    0.7964 H   0  0  0  0  0  0  0  0  0  0  0  0
   -3.0553   -0.4034    0.1449 C   0  0  0  0  0  0  0  0  0  0  0  0
   -3.6203    0.5020   -0.1037 H   0  0  0  0  0  0  0  0  0  0  0  0
   -3.5825   -0.9157    0.9552 H   0  0  0  0  0  0  0  0  0  0  0  0
   -3.0716   -1.0589   -0.7324 H   0  0  0  0  0  0  0  0  0  0  0  0
  1  9  1  0  0  0  0
  2  1  1  0  0  0  0
  2  4  1  0  0  0  0
  3  2  1  0  0  0  0
  5  2  1  0  0  0  0
  5 11  1  0  0  0  0
  6  5  1  0  0  0  0
  7  5  1  0  0  0  0
  8  1  2  0  0  0  0
 10  9  1  0  0  0  0
 11 13  1  0  0  0  0
 11 12  1  0  0  0  0
 14 11  1  0  0  0  0
 14 16  1  0  0  0  0
 15 14  1  0  0  0  0
 17 14  1  0  0  0  0
M  END
$$$$
