monomer_pw91_h_pimelic.log
 OpenBabel08081914533D
Gaussian software/kemi/g16/avx2/g16/g16 # opt freq pw91pw91 6-31++g(d,p) G09Defa
 23 22  0  0  0  0  0  0  0  0999 V2000
    3.3668    0.3122    0.2044 C   0  0  0  0  0  0  0  0  0  0  0  0
    2.7556   -0.8994   -0.4688 C   0  0  0  0  0  0  0  0  0  0  0  0
    2.7882   -0.7463   -1.5607 H   0  0  0  0  0  0  0  0  0  0  0  0
    3.4409   -1.7426   -0.2677 H   0  0  0  0  0  0  0  0  0  0  0  0
    1.3389   -1.2241    0.0189 C   0  0  0  0  0  0  0  0  0  0  0  0
    1.3436   -1.2802    1.1204 H   0  0  0  0  0  0  0  0  0  0  0  0
    1.0646   -2.2271   -0.3510 H   0  0  0  0  0  0  0  0  0  0  0  0
    0.2841   -0.2056   -0.4366 C   0  0  0  0  0  0  0  0  0  0  0  0
    0.5681    0.7973   -0.0714 H   0  0  0  0  0  0  0  0  0  0  0  0
    0.2825   -0.1512   -1.5422 H   0  0  0  0  0  0  0  0  0  0  0  0
   -1.1257   -0.5503    0.0608 C   0  0  0  0  0  0  0  0  0  0  0  0
   -1.1289   -0.6088    1.1624 H   0  0  0  0  0  0  0  0  0  0  0  0
   -1.4201   -1.5520   -0.2961 H   0  0  0  0  0  0  0  0  0  0  0  0
   -2.1706    0.4721   -0.3917 C   0  0  0  0  0  0  0  0  0  0  0  0
   -1.9286    1.4841   -0.0213 H   0  0  0  0  0  0  0  0  0  0  0  0
   -2.1903    0.5637   -1.4929 H   0  0  0  0  0  0  0  0  0  0  0  0
   -3.5759    0.1414    0.0602 C   0  0  0  0  0  0  0  0  0  0  0  0
   -3.9204   -0.8444    0.6955 O   0  0  0  0  0  0  0  0  0  0  0  0
    2.9733    0.8448    1.2323 O   0  0  0  0  0  0  0  0  0  0  0  0
   -4.4675    1.1022   -0.3356 O   0  0  0  0  0  0  0  0  0  0  0  0
   -5.3434    0.8093   -0.0056 H   0  0  0  0  0  0  0  0  0  0  0  0
    4.4724    0.7556   -0.4685 O   0  0  0  0  0  0  0  0  0  0  0  0
    4.8214    1.5102    0.0523 H   0  0  0  0  0  0  0  0  0  0  0  0
  1 19  2  0  0  0  0
  2  4  1  0  0  0  0
  2  5  1  0  0  0  0
  2  1  1  0  0  0  0
  3  2  1  0  0  0  0
  5  6  1  0  0  0  0
  7  5  1  0  0  0  0
  8  9  1  0  0  0  0
  8  5  1  0  0  0  0
  8 11  1  0  0  0  0
 10  8  1  0  0  0  0
 11 12  1  0  0  0  0
 13 11  1  0  0  0  0
 14 15  1  0  0  0  0
 14 17  1  0  0  0  0
 14 11  1  0  0  0  0
 16 14  1  0  0  0  0
 17 18  2  0  0  0  0
 20 21  1  0  0  0  0
 20 17  1  0  0  0  0
 22 23  1  0  0  0  0
 22  1  1  0  0  0  0
M  END
$$$$
