monomer_pw91_qh_pentanoic.log
 OpenBabel08081914533D
Gaussian software/kemi/g16/avx2/g16/g16 # opt freq pw91pw91 6-31++g(d,p) G09Defa
 17 16  0  0  0  0  0  0  0  0999 V2000
   -1.7302    0.1253    0.0000 C   0  0  0  0  0  0  0  0  0  0  0  0
   -0.4303   -0.6482   -0.0000 C   0  0  0  0  0  0  0  0  0  0  0  0
   -0.4429   -1.3198   -0.8772 H   0  0  0  0  0  0  0  0  0  0  0  0
   -0.4429   -1.3198    0.8772 H   0  0  0  0  0  0  0  0  0  0  0  0
    0.8152    0.2411    0.0000 C   0  0  0  0  0  0  0  0  0  0  0  0
    0.7872    0.9064   -0.8799 H   0  0  0  0  0  0  0  0  0  0  0  0
    0.7872    0.9064    0.8799 H   0  0  0  0  0  0  0  0  0  0  0  0
   -1.8514    1.3416   -0.0000 O   0  0  0  0  0  0  0  0  0  0  0  0
   -2.8118   -0.7149    0.0000 O   0  0  0  0  0  0  0  0  0  0  0  0
   -3.6029   -0.1350    0.0000 H   0  0  0  0  0  0  0  0  0  0  0  0
    2.1182   -0.5699   -0.0000 C   0  0  0  0  0  0  0  0  0  0  0  0
    2.1358   -1.2351   -0.8829 H   0  0  0  0  0  0  0  0  0  0  0  0
    2.1358   -1.2351    0.8828 H   0  0  0  0  0  0  0  0  0  0  0  0
    3.3708    0.3144    0.0000 C   0  0  0  0  0  0  0  0  0  0  0  0
    3.3976    0.9657   -0.8887 H   0  0  0  0  0  0  0  0  0  0  0  0
    4.2910   -0.2900   -0.0000 H   0  0  0  0  0  0  0  0  0  0  0  0
    3.3976    0.9657    0.8888 H   0  0  0  0  0  0  0  0  0  0  0  0
  1  9  1  0  0  0  0
  2  1  1  0  0  0  0
  2  5  1  0  0  0  0
  2  4  1  0  0  0  0
  3  2  1  0  0  0  0
  5  7  1  0  0  0  0
  6  5  1  0  0  0  0
  8  1  2  0  0  0  0
  9 10  1  0  0  0  0
 11 14  1  0  0  0  0
 11  5  1  0  0  0  0
 11 13  1  0  0  0  0
 12 11  1  0  0  0  0
 14 17  1  0  0  0  0
 15 14  1  0  0  0  0
 16 14  1  0  0  0  0
M  END
$$$$
