monomer_m062x_h_formic.log
 OpenBabel08081914533D
Gaussian software/kemi/g16/avx2/g16/g16 # opt freq m062x 6-31++g(d,p) G09Default
  5  4  0  0  0  0  0  0  0  0999 V2000
   -0.0000    0.4231    0.0000 C   0  0  0  0  0  0  0  0  0  0  0  0
   -0.3673    1.4572   -0.0000 H   0  0  0  0  0  0  0  0  0  0  0  0
   -1.0283   -0.4350   -0.0000 O   0  0  0  0  0  0  0  0  0  0  0  0
   -0.6644   -1.3353   -0.0000 H   0  0  0  0  0  0  0  0  0  0  0  0
    1.1572    0.1024    0.0000 O   0  0  0  0  0  0  0  0  0  0  0  0
  1  2  1  0  0  0  0
  1  3  1  0  0  0  0
  1  5  2  0  0  0  0
  3  4  1  0  0  0  0
M  END
$$$$
