29
1sa1nta1ma1dma-33
S        0.51546200       1.64819800      -0.24728100
O        1.43300500       2.75318100      -0.07696200
O        1.19828500       0.73768000      -1.40475200
O        0.42129900       0.72905100       0.94161500
O       -0.85351800       1.96297500      -0.71317300
H        1.60419900      -0.27592800       1.21114900
H       -1.85756600       0.73808600      -0.12111300
N       -0.09881300      -2.06807600      -0.50748900
O        1.05188400      -2.54463600      -0.61717200
O       -0.75317000      -2.23852500       0.54746400
O       -0.58947300      -1.38709500      -1.43860400
H        0.58610600       0.00710700      -1.64800300
N       -2.44299400       0.02168900       0.37336300
C       -3.58875900      -0.35057000      -0.47956400
C       -2.79820300       0.56297900       1.70025800
H       -1.82785000      -0.81019500       0.48824000
H       -4.18153700       0.53967400      -0.69497300
H       -3.19428600      -0.77331000      -1.40320300
H       -4.20021800      -1.09197400       0.03747300
H       -3.40277500       1.46169900       1.57044000
H       -3.35705600      -0.18685200       2.26292500
H       -1.87058800       0.81437700       2.21422600
N        2.37998200      -1.00967600       1.21233100
H        2.56533800      -1.30792400       2.16673100
C        3.58402000      -0.45349800       0.54642800
H        4.36875000      -1.20878300       0.51110300
H        3.29328900      -0.15653100      -0.46104200
H        3.92090100       0.42528800       1.09562400
H        1.98982600      -1.80797400       0.66942500
29
1sa1nta1ma1dma-11
S       -0.15455900       1.80002000      -0.06736600
O        0.73892500       2.92502100       0.11532100
O        0.34024300       1.13098900      -1.46203000
O        0.01894000       0.69543300       0.93583800
O       -1.59334500       2.11406100      -0.22608300
H        1.46453300      -0.01116700       0.70918300
H       -2.58167500       0.81938400       0.07093900
N       -0.43802700      -2.09621100      -0.76634800
O        0.76201300      -2.30959600      -1.03352600
O       -1.02689500      -2.70476100       0.12849700
O       -1.07074800      -1.21410600      -1.43951400
H       -0.15700700       0.29184100      -1.61793800
N        2.32893900      -0.52444800       0.37741600
C        2.83300800      -1.39487300       1.45900200
C        3.30313500       0.46049300      -0.14355800
H        1.95959100      -1.12191200      -0.38178300
H        3.10340100      -0.77779700       2.31704600
H        2.04420500      -2.09541500       1.73315600
H        3.70623600      -1.94582000       1.10641200
H        3.58912800       1.13517600       0.66395000
H        4.17975600      -0.06405000      -0.52720800
H        2.81848100       1.03150400      -0.93519600
N       -2.98419000      -0.14609400       0.21021200
H       -3.94063700      -0.17321800      -0.13467600
C       -2.88353900      -0.55412100       1.63206400
H       -3.15798000      -1.60344300       1.72845800
H       -1.84641000      -0.40959900       1.93090600
H       -3.53698500       0.07772600       2.23386300
H       -2.38742900      -0.75157700      -0.40129000
29
1sa1nta1ma1dma-22
S        0.37738000      -1.77759500      -0.17217400
O        1.15384900      -2.98810300      -0.01492900
O       -1.05722300      -1.93705400      -0.49764400
O        0.54094500      -0.77462800       0.93344100
O        1.05841100      -1.03767300      -1.45854300
H        1.97209700      -0.00370400       0.70090400
H        0.55632000      -0.20899000      -1.63863500
N       -0.06852900       2.12669900      -0.55907700
O       -0.37478500       1.28464500      -1.43991500
O        1.09618500       2.57593000      -0.48715900
O       -0.93990600       2.50762900       0.24941300
H       -1.94299100       1.06048800       0.30779200
N       -2.48761900       0.17830500       0.40437700
C       -3.74473500       0.30659400      -0.35765700
C       -2.65602200      -0.13229200       1.83894000
H       -1.90714400      -0.58678000      -0.02132000
H       -4.35476900       1.10120100       0.07507900
H       -3.49599500       0.55145500      -1.39020000
H       -4.28342600      -0.64141200      -0.32236400
H       -3.19584200       0.68075400       2.32722000
H       -3.20863200      -1.06757400       1.93909600
H       -1.66257400      -0.24718400       2.27292600
N        2.76441300       0.53143500       0.24451400
H        3.09116300      -0.07109300      -0.51164600
C        3.82954600       0.92017400       1.18970100
H        4.61627600       1.45739700       0.66013200
H        3.39574000       1.56785000       1.95069100
H        4.23942600       0.02571800       1.65804400
H        2.29186600       1.35548300      -0.18485100
