46
2msa1nta1dma1tma-1
N        0.34518200      -2.29605000      -0.59546000
C       -0.20978900      -3.51660400       0.02556500
C        0.37434800      -2.32574100      -2.07479500
H       -0.22828600      -1.47447900      -0.30638100
H        0.40643700      -4.37225500      -0.25647400
H       -0.19752700      -3.38671900       1.10745000
H       -1.23366300      -3.64426900      -0.32681200
H        0.97785300      -3.17458900      -2.40121700
H       -0.65052100      -2.41108500      -2.43736200
H        0.82967000      -1.39495000      -2.41475100
H        1.31140700      -2.11135800      -0.25622200
N       -0.58274500       2.46997300      -0.58613400
C       -1.80548300       3.17420100      -0.12263400
H       -2.67313100       2.65984100      -0.53743300
H       -1.82997000       3.13598700       0.96742800
H       -1.76519600       4.21186100      -0.46183400
C        0.64770200       3.10365500      -0.05142500
H        0.57475600       3.15322700       1.03402200
H        1.50127700       2.49216400      -0.34003200
H        0.72858900       4.10828400      -0.47361800
C       -0.53657800       2.35062800      -2.06822800
H        0.35372500       1.77611900      -2.32616500
H       -1.43891300       1.82973300      -2.39117000
H       -0.48911800       3.35252100      -2.50150600
H       -0.66860000       1.48322000      -0.23904800
N       -0.19506100      -0.11500100       2.53486800
O        0.30759500      -1.19519300       2.28392100
O       -1.26081300       0.08919200       3.06626400
O        0.49540200       0.98664800       2.19410700
H        1.38861100       0.70368500       1.76806600
S       -2.67350600      -0.46395200      -0.54303100
O       -2.67590900      -1.79948800      -1.15923400
O       -3.23227300       0.63001900      -1.35728300
O       -1.27742800      -0.10897800      -0.05633800
C       -3.65548800      -0.56446700       0.94370100
H       -4.67553600      -0.81668200       0.65204200
H       -3.23018700      -1.33378800       1.58822200
H       -3.62188200       0.40136200       1.44785600
S        2.97760900      -0.04510900      -0.20463900
O        2.09151300       0.47308100      -1.27230300
O        2.93824100      -1.52154500      -0.08183900
O        2.74550300       0.65470800       1.09882800
C        4.65455700       0.36840600      -0.64362900
H        4.88126500      -0.11853800      -1.59227600
H        4.72923900       1.45184000      -0.73838100
H        5.31215800       0.00335600       0.14508900
46
2msa1nta1dma1tma-2
N       -0.49944100       2.48390200       0.48191700
C       -1.34419900       3.39410700       1.27936200
C       -0.51971800       2.76457400      -0.97318400
H        0.49623900       2.50346100       0.79737200
H       -2.38128500       3.25866300       0.96978500
H       -1.23439200       3.14170100       2.33417900
H       -1.02418700       4.42369700       1.11127600
H       -1.54874700       2.70299600      -1.32664300
H       -0.10079500       3.75804400      -1.14197900
H        0.08434200       2.00598600      -1.47008800
H       -0.82253300       1.51161400       0.64964100
N        0.63833000      -2.13003600       1.22076900
C        0.62053800      -1.67432600       2.63514100
H        1.50888300      -1.06482700       2.80637000
H       -0.28332300      -1.08261100       2.78248200
H        0.62009700      -2.55071800       3.28785500
C       -0.55560700      -2.94677200       0.89414600
H       -1.43815500      -2.39393200       1.20598000
H       -0.59244800      -3.10380100      -0.18223300
H       -0.48144000      -3.89672800       1.42906500
C        1.89883700      -2.84552500       0.88871200
H        1.88374500      -3.08471200      -0.17456600
H        2.73275100      -2.17987900       1.11436300
H        1.95320500      -3.75657600       1.48917500
H        0.64615400      -1.25577900       0.64215400
N        0.61342400      -0.95768300      -2.53445500
O        0.55019200      -2.02686900      -1.94603900
O        1.57707200      -0.50419600      -3.10289900
O       -0.49232200      -0.20574400      -2.58270200
H       -1.19902300      -0.61866800      -1.96978300
S       -2.81523500      -0.08023800       0.03506700
O       -2.37095000      -1.01626000      -1.04363900
O       -3.24326000       1.23898600      -0.45312000
O       -1.79146900       0.01596800       1.11967600
C       -4.24133600      -0.87021900       0.75969500
H       -5.00306800      -0.96239000      -0.01456500
H       -3.95160000      -1.85436200       1.12913000
H       -4.59629400      -0.24044400       1.57571200
S        2.48709500       0.86834500       0.51746500
O        3.16850100       0.02807500       1.51678100
O        2.18264200       2.25081000       0.97982400
O        1.24726200       0.22007600      -0.02669100
C        3.59070900       1.03644600      -0.87267500
H        4.50516600       1.51329700      -0.51913600
H        3.79448700       0.04148000      -1.26839600
H        3.09959000       1.64500800      -1.63199000
46
2msa1nta1dma1tma-5
N        0.27954200      -2.02478800       1.62212300
C        1.72982100      -2.35878300       1.63126900
H        1.95184800      -2.93099700       0.73021300
H        2.30836700      -1.43385100       1.62693300
H        1.94278300      -2.95058400       2.52449800
C       -0.09761600      -1.17138900       2.77713600
H        0.57059300      -0.30904800       2.78221100
H       -1.13173100      -0.85424900       2.64064800
H        0.01749000      -1.74893900       3.69717200
C       -0.56000000      -3.24348300       1.51374600
H       -1.60667900      -2.94686000       1.51094800
H       -0.32032100      -3.73754400       0.57186400
H       -0.33218100      -3.89714300       2.35878600
N        0.05301500       2.52873900       0.58210300
C        0.05184900       2.97687400      -0.82582600
C        0.18399600       3.62663700       1.55896700
H       -0.82714200       1.99663500       0.75774000
H        1.02195400       3.41615500      -1.05461900
H       -0.13064600       2.10884400      -1.45613600
H       -0.75381000       3.69991900      -0.96556300
H        1.13488700       4.13371400       1.39032200
H       -0.64703200       4.32382700       1.44047000
H        0.17437500       3.20244100       2.56276300
N        2.91466500       0.92790000       0.55284600
O        2.86773100       1.84686100      -0.28920000
O        3.65939500      -0.05058200       0.40441200
O        2.15420700       0.99417200       1.57094000
H        0.84859100       1.87655800       0.76115500
S       -2.73943900       0.19544200      -0.03867400
O       -2.32308500       0.57147000      -1.42859200
O       -2.32935700       1.22390600       0.95709900
O       -2.34037100      -1.17215900       0.33550500
H        0.11662800      -1.44024600       0.78026100
C       -4.52141700       0.24013200      -0.06991500
H       -4.83287200       1.24241000      -0.36403500
H       -4.86445200      -0.49930300      -0.79357100
H       -4.88378200       0.00132300       0.93018500
S        0.70569400      -0.97346200      -1.76164400
O        0.80270700      -2.42258700      -1.65763700
O        0.53587600      -0.24815100      -0.49118300
O       -0.46038500      -0.54964300      -2.72208500
H       -1.24423300      -0.14467800      -2.18586700
C        2.13559400      -0.33523200      -2.58537500
H        2.22615800      -0.83488200      -3.54976900
H        2.01657700       0.74213100      -2.69204100
H        2.98690700      -0.54507900      -1.93306300
