1sa_1tma_2w.log
 OpenBabel02281909523D
Gaussian users/kemi/kmacke/programs/G09D/g09/g09 # opt freq 6-31++g(d,p) wb97xd
 26 22  0  0  0  0  0  0  0  0999 V2000
   -0.6181   -0.6762    0.1890 S   0  0  0  0  0  0  0  0  0  0  0  0
   -1.7408   -1.2924   -0.5274 O   0  0  0  0  0  0  0  0  0  0  0  0
    0.3881   -1.6013    0.7140 O   0  0  0  0  0  0  0  0  0  0  0  0
    0.0221    0.4199   -0.6288 O   0  0  0  0  0  0  0  0  0  0  0  0
   -1.1974    0.0606    1.4850 O   0  0  0  0  0  0  0  0  0  0  0  0
    1.5077    0.3637   -0.4063 H   0  0  0  0  0  0  0  0  0  0  0  0
   -1.8478    0.7632    1.1980 H   0  0  0  0  0  0  0  0  0  0  0  0
   -2.8925    1.8733    0.5229 O   0  0  0  0  0  0  0  0  0  0  0  0
   -3.4742    1.3242   -0.0508 H   0  0  0  0  0  0  0  0  0  0  0  0
   -2.4000    2.4397   -0.0778 H   0  0  0  0  0  0  0  0  0  0  0  0
   -4.0498    0.0457   -1.0923 O   0  0  0  0  0  0  0  0  0  0  0  0
   -3.2567   -0.5248   -1.0081 H   0  0  0  0  0  0  0  0  0  0  0  0
   -4.7975   -0.4909   -0.8198 H   0  0  0  0  0  0  0  0  0  0  0  0
    2.5799    0.3332   -0.2301 N   0  0  0  0  0  0  0  0  0  0  0  0
    2.7654    0.4059    1.2398 C   0  0  0  0  0  0  0  0  0  0  0  0
    2.2452   -0.4418    1.6861 H   0  0  0  0  0  0  0  0  0  0  0  0
    3.8333    0.3838    1.4726 H   0  0  0  0  0  0  0  0  0  0  0  0
    2.3185    1.3319    1.6033 H   0  0  0  0  0  0  0  0  0  0  0  0
    3.0724   -0.9528   -0.7788 C   0  0  0  0  0  0  0  0  0  0  0  0
    2.5275   -1.7576   -0.2851 H   0  0  0  0  0  0  0  0  0  0  0  0
    2.8627   -0.9796   -1.8488 H   0  0  0  0  0  0  0  0  0  0  0  0
    4.1483   -1.0361   -0.6038 H   0  0  0  0  0  0  0  0  0  0  0  0
    3.1653    1.4993   -0.9239 C   0  0  0  0  0  0  0  0  0  0  0  0
    4.2465    1.5200   -0.7651 H   0  0  0  0  0  0  0  0  0  0  0  0
    2.9464    1.4234   -1.9895 H   0  0  0  0  0  0  0  0  0  0  0  0
    2.7135    2.4090   -0.5271 H   0  0  0  0  0  0  0  0  0  0  0  0
  1  3  1  0  0  0  0
  1  5  1  0  0  0  0
  2  1  2  0  0  0  0
  4  1  2  0  0  0  0
  6 14  1  0  0  0  0
  7  5  1  0  0  0  0
  9  8  1  0  0  0  0
 10  8  1  0  0  0  0
 11 12  1  0  0  0  0
 11 13  1  0  0  0  0
 14 15  1  0  0  0  0
 15 17  1  0  0  0  0
 15 18  1  0  0  0  0
 15 16  1  0  0  0  0
 19 22  1  0  0  0  0
 19 20  1  0  0  0  0
 19 14  1  0  0  0  0
 21 19  1  0  0  0  0
 23 24  1  0  0  0  0
 23 26  1  0  0  0  0
 23 14  1  0  0  0  0
 25 23  1  0  0  0  0
M  RAD  1   3   2
M  END
$$$$
