1sa_2tma_2w.log
 OpenBabel02281909523D
Gaussian users/kemi/kmacke/programs/G09D/g09/g09 # opt freq 6-31++g(d,p) wb97xd
 39 34  0  0  0  0  0  0  0  0999 V2000
    0.2768   -0.2077   -0.4959 S   0  0  0  0  0  0  0  0  0  0  0  0
    1.3338    0.9125   -0.8514 O   0  0  0  0  0  0  0  0  0  0  0  0
    0.9068   -1.5191   -0.6788 O   0  0  0  0  0  0  0  0  0  0  0  0
   -0.1225    0.0236    0.9344 O   0  0  0  0  0  0  0  0  0  0  0  0
   -0.8787    0.0637   -1.3861 O   0  0  0  0  0  0  0  0  0  0  0  0
   -3.2658    0.1251   -0.1750 N   0  0  0  0  0  0  0  0  0  0  0  0
   -1.3474    2.5082    0.9982 O   0  0  0  0  0  0  0  0  0  0  0  0
   -1.4806   -2.4118    1.2841 O   0  0  0  0  0  0  0  0  0  0  0  0
   -0.9444   -1.6035    1.3850 H   0  0  0  0  0  0  0  0  0  0  0  0
   -0.9293   -2.9657    0.7222 H   0  0  0  0  0  0  0  0  0  0  0  0
   -0.8046    3.0788    0.4483 H   0  0  0  0  0  0  0  0  0  0  0  0
   -0.8255    1.6841    1.0832 H   0  0  0  0  0  0  0  0  0  0  0  0
   -2.2368    0.1323   -0.3954 H   0  0  0  0  0  0  0  0  0  0  0  0
    3.6441    0.1773    0.0669 N   0  0  0  0  0  0  0  0  0  0  0  0
    2.2743    0.6338   -0.4737 H   0  0  0  0  0  0  0  0  0  0  0  0
    3.3974   -0.4440    1.3713 C   0  0  0  0  0  0  0  0  0  0  0  0
    2.9539    0.2913    2.0469 H   0  0  0  0  0  0  0  0  0  0  0  0
    2.6877   -1.2640    1.2453 H   0  0  0  0  0  0  0  0  0  0  0  0
    4.3296   -0.8274    1.8147 H   0  0  0  0  0  0  0  0  0  0  0  0
    4.1505   -0.8055   -0.8943 C   0  0  0  0  0  0  0  0  0  0  0  0
    5.1090   -1.2343   -0.5625 H   0  0  0  0  0  0  0  0  0  0  0  0
    3.4086   -1.5986   -1.0085 H   0  0  0  0  0  0  0  0  0  0  0  0
    4.2938   -0.3225   -1.8642 H   0  0  0  0  0  0  0  0  0  0  0  0
    4.5396    1.3257    0.1843 C   0  0  0  0  0  0  0  0  0  0  0  0
    4.6583    1.7990   -0.7938 H   0  0  0  0  0  0  0  0  0  0  0  0
    4.1086    2.0560    0.8740 H   0  0  0  0  0  0  0  0  0  0  0  0
    5.5326    1.0302    0.5582 H   0  0  0  0  0  0  0  0  0  0  0  0
   -3.4897    0.1762    1.2919 C   0  0  0  0  0  0  0  0  0  0  0  0
   -4.5674    0.1815    1.4747 H   0  0  0  0  0  0  0  0  0  0  0  0
   -3.0370   -0.7070    1.7404 H   0  0  0  0  0  0  0  0  0  0  0  0
   -3.0333    1.0862    1.6790 H   0  0  0  0  0  0  0  0  0  0  0  0
   -3.7739   -1.1406   -0.7597 C   0  0  0  0  0  0  0  0  0  0  0  0
   -3.2789   -1.9647   -0.2430 H   0  0  0  0  0  0  0  0  0  0  0  0
   -4.8571   -1.1884   -0.6243 H   0  0  0  0  0  0  0  0  0  0  0  0
   -3.5186   -1.1594   -1.8193 H   0  0  0  0  0  0  0  0  0  0  0  0
   -3.8086    1.3264   -0.8535 C   0  0  0  0  0  0  0  0  0  0  0  0
   -3.5601    1.2663   -1.9134 H   0  0  0  0  0  0  0  0  0  0  0  0
   -4.8920    1.3584   -0.7160 H   0  0  0  0  0  0  0  0  0  0  0  0
   -3.3298    2.1994   -0.4084 H   0  0  0  0  0  0  0  0  0  0  0  0
  1  4  1  0  0  0  0
  2  1  1  0  0  0  0
  2 15  1  0  0  0  0
  3  1  2  0  0  0  0
  5  1  2  0  0  0  0
  6 28  1  0  0  0  0
  7 12  1  0  0  0  0
  8  9  1  0  0  0  0
 10  8  1  0  0  0  0
 11  7  1  0  0  0  0
 13  6  1  0  0  0  0
 14 24  1  0  0  0  0
 14 16  1  0  0  0  0
 16 19  1  0  0  0  0
 16 17  1  0  0  0  0
 18 16  1  0  0  0  0
 20 21  1  0  0  0  0
 20 14  1  0  0  0  0
 22 20  1  0  0  0  0
 23 20  1  0  0  0  0
 24 27  1  0  0  0  0
 24 26  1  0  0  0  0
 25 24  1  0  0  0  0
 28 29  1  0  0  0  0
 28 31  1  0  0  0  0
 28 30  1  0  0  0  0
 32 34  1  0  0  0  0
 32 33  1  0  0  0  0
 32  6  1  0  0  0  0
 35 32  1  0  0  0  0
 36 38  1  0  0  0  0
 36 39  1  0  0  0  0
 36  6  1  0  0  0  0
 37 36  1  0  0  0  0
M  RAD  1   4   2
M  END
$$$$
