2sa_1tma_3w.log
 OpenBabel02281909523D
Gaussian users/kemi/kmacke/programs/G09D/g09/g09 # opt freq 6-31++g(d,p) wb97xd
 36 29  0  0  0  0  0  0  0  0999 V2000
    1.5081    1.4700   -0.6190 S   0  0  0  0  0  0  0  0  0  0  0  0
    1.2732    0.6339    0.6344 O   0  0  0  0  0  0  0  0  0  0  0  0
   -0.6361    1.5651    2.0050 O   0  0  0  0  0  0  0  0  0  0  0  0
    0.1951    1.1566    1.5628 H   0  0  0  0  0  0  0  0  0  0  0  0
    1.8768    2.8458   -0.2811 O   0  0  0  0  0  0  0  0  0  0  0  0
    0.0589    1.6235   -1.2709 O   0  0  0  0  0  0  0  0  0  0  0  0
   -0.6285    2.5334    1.6910 H   0  0  0  0  0  0  0  0  0  0  0  0
    2.1515   -1.9485    0.2687 N   0  0  0  0  0  0  0  0  0  0  0  0
    1.6560   -1.0478    0.4639 H   0  0  0  0  0  0  0  0  0  0  0  0
   -1.8178   -1.0139    0.0859 S   0  0  0  0  0  0  0  0  0  0  0  0
   -1.2356   -0.6741   -1.2350 O   0  0  0  0  0  0  0  0  0  0  0  0
   -2.3825    0.2141    0.7458 O   0  0  0  0  0  0  0  0  0  0  0  0
   -0.9283   -1.7833    0.9477 O   0  0  0  0  0  0  0  0  0  0  0  0
   -0.4008    0.7383   -1.3369 H   0  0  0  0  0  0  0  0  0  0  0  0
    2.3818    0.7467   -1.5345 O   0  0  0  0  0  0  0  0  0  0  0  0
   -1.4117    1.0590    1.5744 H   0  0  0  0  0  0  0  0  0  0  0  0
   -3.0711   -1.9555   -0.1869 O   0  0  0  0  0  0  0  0  0  0  0  0
   -3.7926   -1.3992   -0.5745 H   0  0  0  0  0  0  0  0  0  0  0  0
   -4.5710    0.4569   -1.7783 H   0  0  0  0  0  0  0  0  0  0  0  0
   -4.6981    0.0766   -0.9046 O   0  0  0  0  0  0  0  0  0  0  0  0
   -4.1419    0.5912   -0.2990 H   0  0  0  0  0  0  0  0  0  0  0  0
   -0.2687    3.9144    1.0494 O   0  0  0  0  0  0  0  0  0  0  0  0
   -0.8867    4.2373    0.3871 H   0  0  0  0  0  0  0  0  0  0  0  0
    0.5645    3.7241    0.5623 H   0  0  0  0  0  0  0  0  0  0  0  0
    3.5970   -1.6137    0.1764 C   0  0  0  0  0  0  0  0  0  0  0  0
    3.7271   -0.8740   -0.6133 H   0  0  0  0  0  0  0  0  0  0  0  0
    3.9198   -1.1919    1.1287 H   0  0  0  0  0  0  0  0  0  0  0  0
    4.1558   -2.5265   -0.0406 H   0  0  0  0  0  0  0  0  0  0  0  0
    1.8761   -2.8884    1.3848 C   0  0  0  0  0  0  0  0  0  0  0  0
    2.2310   -2.4402    2.3134 H   0  0  0  0  0  0  0  0  0  0  0  0
    0.8017   -3.0524    1.4415 H   0  0  0  0  0  0  0  0  0  0  0  0
    2.4079   -3.8233    1.1949 H   0  0  0  0  0  0  0  0  0  0  0  0
    1.6262   -2.4567   -1.0279 C   0  0  0  0  0  0  0  0  0  0  0  0
    0.5574   -2.6308   -0.9186 H   0  0  0  0  0  0  0  0  0  0  0  0
    1.7999   -1.6928   -1.7858 H   0  0  0  0  0  0  0  0  0  0  0  0
    2.1511   -3.3813   -1.2781 H   0  0  0  0  0  0  0  0  0  0  0  0
  1  5  2  0  0  0  0
  1  2  1  0  0  0  0
  6  1  1  0  0  0  0
  7  3  1  0  0  0  0
  8  9  1  0  0  0  0
  8 29  1  0  0  0  0
 10 12  2  0  0  0  0
 10 13  1  0  0  0  0
 11 10  2  0  0  0  0
 14  6  1  0  0  0  0
 15  1  2  0  0  0  0
 16  3  1  0  0  0  0
 17 10  1  0  0  0  0
 18 17  1  0  0  0  0
 19 20  1  0  0  0  0
 20 21  1  0  0  0  0
 23 22  1  0  0  0  0
 24 22  1  0  0  0  0
 25  8  1  0  0  0  0
 25 27  1  0  0  0  0
 26 25  1  0  0  0  0
 28 25  1  0  0  0  0
 29 31  1  0  0  0  0
 29 30  1  0  0  0  0
 32 29  1  0  0  0  0
 33 34  1  0  0  0  0
 33  8  1  0  0  0  0
 35 33  1  0  0  0  0
 36 33  1  0  0  0  0
M  RAD  3   2   2   4   2  13   2
M  END
$$$$
