2sa_1tma_1w.log
 OpenBabel02281909523D
Gaussian users/kemi/kmacke/programs/G09D/g09/g09 # opt freq 6-31++g(d,p) wb97xd
 30 26  0  0  0  0  0  0  0  0999 V2000
   -0.5839    1.4805    0.1587 S   0  0  0  0  0  0  0  0  0  0  0  0
   -0.1160    2.9227   -0.2465 O   0  0  0  0  0  0  0  0  0  0  0  0
   -0.3670    0.5790   -1.0110 O   0  0  0  0  0  0  0  0  0  0  0  0
   -2.0293    1.6047    0.4478 O   0  0  0  0  0  0  0  0  0  0  0  0
    0.2165    1.0581    1.3291 O   0  0  0  0  0  0  0  0  0  0  0  0
    0.8900    2.9127   -0.3418 H   0  0  0  0  0  0  0  0  0  0  0  0
   -2.6426    0.1456    0.1234 H   0  0  0  0  0  0  0  0  0  0  0  0
    2.3755   -1.2896    0.0026 S   0  0  0  0  0  0  0  0  0  0  0  0
    1.2423   -1.4535   -1.0953 O   0  0  0  0  0  0  0  0  0  0  0  0
    3.1196   -2.5142    0.0393 O   0  0  0  0  0  0  0  0  0  0  0  0
    1.5551   -1.1844    1.3518 O   0  0  0  0  0  0  0  0  0  0  0  0
    3.0532   -0.0198   -0.2289 O   0  0  0  0  0  0  0  0  0  0  0  0
    0.7041   -0.6094   -1.1475 H   0  0  0  0  0  0  0  0  0  0  0  0
    1.0850   -0.2995    1.4027 H   0  0  0  0  0  0  0  0  0  0  0  0
    2.4763    2.7010   -0.4208 O   0  0  0  0  0  0  0  0  0  0  0  0
    2.6970    1.7502   -0.4438 H   0  0  0  0  0  0  0  0  0  0  0  0
    2.9414    3.0525    0.3438 H   0  0  0  0  0  0  0  0  0  0  0  0
   -3.0295   -0.8257   -0.0536 N   0  0  0  0  0  0  0  0  0  0  0  0
   -4.3417   -0.8839    0.6326 C   0  0  0  0  0  0  0  0  0  0  0  0
   -4.7971   -1.8625    0.4661 H   0  0  0  0  0  0  0  0  0  0  0  0
   -4.1868   -0.7190    1.6990 H   0  0  0  0  0  0  0  0  0  0  0  0
   -4.9841   -0.0982    0.2346 H   0  0  0  0  0  0  0  0  0  0  0  0
   -3.1530   -0.9802   -1.5253 C   0  0  0  0  0  0  0  0  0  0  0  0
   -3.5060   -1.9886   -1.7519 H   0  0  0  0  0  0  0  0  0  0  0  0
   -3.8610   -0.2391   -1.8968 H   0  0  0  0  0  0  0  0  0  0  0  0
   -2.1735   -0.7986   -1.9671 H   0  0  0  0  0  0  0  0  0  0  0  0
   -2.0620   -1.7994    0.5213 C   0  0  0  0  0  0  0  0  0  0  0  0
   -1.8922   -1.5498    1.5690 H   0  0  0  0  0  0  0  0  0  0  0  0
   -2.4772   -2.8056    0.4334 H   0  0  0  0  0  0  0  0  0  0  0  0
   -1.1211   -1.7320   -0.0236 H   0  0  0  0  0  0  0  0  0  0  0  0
  1  4  2  0  0  0  0
  1  5  1  0  0  0  0
  2  1  1  0  0  0  0
  3  1  2  0  0  0  0
  6  2  1  0  0  0  0
  8 10  2  0  0  0  0
  8 11  1  0  0  0  0
  9  8  1  0  0  0  0
 11 14  1  0  0  0  0
 12  8  2  0  0  0  0
 13  9  1  0  0  0  0
 15 17  1  0  0  0  0
 16 15  1  0  0  0  0
 18  7  1  0  0  0  0
 18 27  1  0  0  0  0
 18 19  1  0  0  0  0
 19 21  1  0  0  0  0
 20 19  1  0  0  0  0
 22 19  1  0  0  0  0
 23 18  1  0  0  0  0
 24 23  1  0  0  0  0
 25 23  1  0  0  0  0
 26 23  1  0  0  0  0
 27 28  1  0  0  0  0
 29 27  1  0  0  0  0
 30 27  1  0  0  0  0
M  RAD  1   5   2
M  END
$$$$
