2sa_1tma_2w.log
 OpenBabel02281909523D
Gaussian users/kemi/kmacke/programs/G09D/g09/g09 # opt freq 6-31++g(d,p) wb97xd
 33 27  0  0  0  0  0  0  0  0999 V2000
   -1.8579    0.6379   -0.5248 S   0  0  0  0  0  0  0  0  0  0  0  0
   -0.9395    0.5989    0.6940 O   0  0  0  0  0  0  0  0  0  0  0  0
   -1.0731   -1.6547    1.8420 O   0  0  0  0  0  0  0  0  0  0  0  0
   -1.0204   -0.6899    1.5036 H   0  0  0  0  0  0  0  0  0  0  0  0
   -3.2559    0.4315   -0.1466 O   0  0  0  0  0  0  0  0  0  0  0  0
   -1.4939   -0.6878   -1.3355 O   0  0  0  0  0  0  0  0  0  0  0  0
   -3.3538   -2.1589    0.7960 O   0  0  0  0  0  0  0  0  0  0  0  0
   -1.9650   -1.9939    1.4802 H   0  0  0  0  0  0  0  0  0  0  0  0
    1.0660    2.4477    0.4140 N   0  0  0  0  0  0  0  0  0  0  0  0
    0.3909    1.6563    0.5413 H   0  0  0  0  0  0  0  0  0  0  0  0
    1.7417   -1.5916   -0.1951 S   0  0  0  0  0  0  0  0  0  0  0  0
    1.1187   -1.0412   -1.4215 O   0  0  0  0  0  0  0  0  0  0  0  0
    0.8562   -2.5787    0.4794 O   0  0  0  0  0  0  0  0  0  0  0  0
    2.3227   -0.5887    0.6873 O   0  0  0  0  0  0  0  0  0  0  0  0
   -0.5058   -0.7874   -1.4411 H   0  0  0  0  0  0  0  0  0  0  0  0
   -1.5432    1.8099   -1.3322 O   0  0  0  0  0  0  0  0  0  0  0  0
   -3.3213   -2.7178    0.0133 H   0  0  0  0  0  0  0  0  0  0  0  0
   -3.5435   -1.2560    0.4587 H   0  0  0  0  0  0  0  0  0  0  0  0
   -0.3017   -2.1164    1.3586 H   0  0  0  0  0  0  0  0  0  0  0  0
    3.0152   -2.4513   -0.6972 O   0  0  0  0  0  0  0  0  0  0  0  0
    2.7011   -3.1569   -1.2793 H   0  0  0  0  0  0  0  0  0  0  0  0
    1.7121    2.2551   -0.9130 C   0  0  0  0  0  0  0  0  0  0  0  0
    2.2402    1.3030   -0.9009 H   0  0  0  0  0  0  0  0  0  0  0  0
    0.9287    2.2342   -1.6702 H   0  0  0  0  0  0  0  0  0  0  0  0
    2.4027    3.0830   -1.0886 H   0  0  0  0  0  0  0  0  0  0  0  0
    2.0517    2.3921    1.5231 C   0  0  0  0  0  0  0  0  0  0  0  0
    2.7586    3.2168    1.4077 H   0  0  0  0  0  0  0  0  0  0  0  0
    1.5193    2.4886    2.4700 H   0  0  0  0  0  0  0  0  0  0  0  0
    2.5627    1.4315    1.4794 H   0  0  0  0  0  0  0  0  0  0  0  0
    0.2581    3.6940    0.4517 C   0  0  0  0  0  0  0  0  0  0  0  0
   -0.4938    3.6380   -0.3349 H   0  0  0  0  0  0  0  0  0  0  0  0
   -0.2332    3.7638    1.4227 H   0  0  0  0  0  0  0  0  0  0  0  0
    0.9219    4.5486    0.3041 H   0  0  0  0  0  0  0  0  0  0  0  0
  1  5  2  0  0  0  0
  1  2  1  0  0  0  0
  6  1  1  0  0  0  0
  8  3  1  0  0  0  0
  9 30  1  0  0  0  0
  9 10  1  0  0  0  0
  9 26  1  0  0  0  0
 11 13  2  0  0  0  0
 11 14  1  0  0  0  0
 12 11  2  0  0  0  0
 15  6  1  0  0  0  0
 16  1  2  0  0  0  0
 17  7  1  0  0  0  0
 18  7  1  0  0  0  0
 19  3  1  0  0  0  0
 20 11  1  0  0  0  0
 21 20  1  0  0  0  0
 22 23  1  0  0  0  0
 22  9  1  0  0  0  0
 24 22  1  0  0  0  0
 25 22  1  0  0  0  0
 26 28  1  0  0  0  0
 27 26  1  0  0  0  0
 29 26  1  0  0  0  0
 30 32  1  0  0  0  0
 31 30  1  0  0  0  0
 33 30  1  0  0  0  0
M  RAD  3   2   2   4   2  14   2
M  END
$$$$
