27
2sa1tma-01
S       -1.13407600      -1.60334500       0.06570700
O        0.03907900      -2.23328800       0.69539100
O       -2.14650500      -1.03874200       0.94346700
O       -0.71909000      -0.62284300      -0.99550300
O       -1.88956200      -2.79674700      -0.71713000
H       -1.22615400      -3.42972800      -1.02462000
S        2.35475300       0.25850600       0.02186000
O        1.29731300       1.07914500       0.60678000
O        3.68238600       0.78159000      -0.11698800
O        2.45389200      -1.09093100       0.83348800
O        1.85731100      -0.20030000      -1.41323300
H        1.56062300      -1.52656200       0.88907500
H        0.88491000      -0.41837600      -1.36318600
N       -1.47696400       1.88791500      -0.02331300
C       -0.73882300       2.97158200      -0.72106500
H        0.27941100       2.99389700      -0.33533700
H       -0.72321400       2.75268500      -1.78927000
H       -1.24819200       3.92025800      -0.54004700
C       -2.85850700       1.72742400      -0.54736300
H       -2.80343300       1.53201400      -1.61818900
H       -3.31649800       0.87594200      -0.04477000
H       -3.41748800       2.64543900      -0.35569100
C       -1.46905400       2.07041600       1.45373800
H       -1.94819500       1.20120700       1.90305700
H       -0.43405400       2.13352400       1.78526800
H       -2.01276100       2.98690500       1.69296500
H       -0.98733000       0.99522100      -0.23918200
27
2sa1tma-02
S       -2.41220500       0.25455500       0.00234000
O       -3.77435100       0.66730400       0.16474100
O       -1.40714500       1.19040300      -0.48864400
O       -1.90585400      -0.33103800       1.38177500
O       -2.41784600      -1.01257100      -0.95588000
H       -1.50842900      -1.38508800      -1.03006400
S        1.33847000      -1.64491100       0.09593000
O        1.75557000      -2.82298000       0.82888500
O        2.27849400      -1.03494900      -0.83771500
O        0.06641500      -2.17734100      -0.84940500
O        0.66674000      -0.58921800       0.92546600
H        0.05687900      -3.14293800      -0.79525100
H       -0.92339200      -0.50355800       1.32743600
N        1.48538300       1.89441100       0.00928400
C        0.76606400       2.99147600       0.70628400
H       -0.26995200       2.99213100       0.37143500
H        0.80590600       2.80690000       1.78033500
H        1.25562100       3.93899700       0.47195500
C        2.89129100       1.77437300       0.47739600
H        2.88635900       1.59803300       1.55332300
H        3.34955800       0.92563200      -0.02930500
H        3.41978400       2.70218200       0.24910800
C        1.41207300       2.02970500      -1.47065600
H        1.88470900       1.15192400      -1.91098600
H        0.36253500       2.07069100      -1.75781700
H        1.93321900       2.94353300      -1.76423800
H        1.01652500       0.99619100       0.26483400
27
2sa1tma-03
S        1.13991900      -1.70191300      -0.01261700
O        2.00376300      -2.81962800      -0.33334000
O        1.54005800      -0.80709000       1.07741900
O        0.66738200      -0.92061100      -1.19294100
O       -0.25641700      -2.39365000       0.58583900
H       -0.34036800      -3.27597200       0.19857300
S       -2.26624400       0.40433300       0.03090800
O       -3.51407300       1.09293200      -0.12220100
O       -1.12773000       1.07082900       0.65404600
O       -2.56355800      -0.92974700       0.83603400
O       -1.80895900      -0.10903900      -1.39122700
H       -1.73829300      -1.46340800       0.91171000
H       -0.86176000      -0.44476700      -1.35681800
N        1.59957800       1.78957900       0.04821900
C        0.96118300       2.32381600      -1.18236700
H        1.03200100       1.56296600      -1.95908300
H       -0.08456800       2.53285000      -0.96698600
H        1.48646000       3.23323100      -1.48125300
C        1.41751300       2.69289000       1.21317700
H        0.34953700       2.83732100       1.36953500
H        1.85469400       2.21518400       2.08995700
H        1.91590800       3.64247300       1.00823800
C        3.03053300       1.46400400      -0.18530100
H        3.43321600       0.99469900       0.71077300
H        3.09291400       0.76214100      -1.01684400
H        3.56695700       2.38538400      -0.42058700
H        1.13837500       0.89589800       0.30050900
