65
3sa2dma2eda-12
S        2.56580100      -1.72512000       0.53306700
O        3.08333500      -1.18748900      -0.75207700
O        1.12084800      -2.12570200       0.34889700
O        3.38182800      -2.73455400       1.17537600
O        2.50575000      -0.49082900       1.54637300
H        1.80490900       0.18956500       1.23558000
S       -3.19432200      -0.99258200      -0.34681700
O       -2.59618900      -0.39111200      -1.56610400
O       -2.67937500      -0.28672700       0.88112600
O       -4.64597800      -1.08266100      -0.36183200
O       -2.60368800      -2.46520300      -0.22735600
H       -1.81961000      -2.64435000      -0.87625800
S        1.14249900       2.36214800       0.05953100
O        1.41149400       1.96710600      -1.37240200
O        0.08156600       3.40275500       0.14225100
O        0.65278000       1.10368300       0.77927900
O        2.41533800       2.82333100       0.68967400
C       -1.17984900      -2.74859500       2.80869100
N       -0.68968300      -1.44710200       2.30832500
C       -0.20297700      -0.52709200       3.36060500
H        0.06610100      -1.63455900       1.61566800
H       -1.98825300      -2.57662800       3.52095000
H       -1.55827200      -3.31947000       1.96119500
H       -0.35822400      -3.27973800       3.29147900
H       -1.00214800      -0.37139200       4.08764700
H        0.66977000      -0.96615100       3.84537800
H        0.07214100       0.41517900       2.88551700
H       -1.45461800      -0.98244800       1.76581900
C        4.66402200       1.96643000      -1.70090700
N        4.28963500       1.30294200      -0.43703000
C        5.41313700       0.99401400       0.46820400
H        3.58484700       1.92092600       0.06308900
H        5.31440800       1.30932800      -2.28164500
H        3.74285200       2.18162700      -2.24335700
H        5.18289800       2.89922800      -1.47394500
H        6.11639700       0.32846400      -0.03545200
H        5.91166400       1.92229900       0.75194300
H        5.01000500       0.50123500       1.35329100
H        3.78847000       0.41641300      -0.64622700
C       -3.39664100       3.09610000       0.78671600
N       -2.36148500       2.35593200       0.03228900
C       -4.73281600       2.36268700       0.63508900
N       -4.98983600       2.10474300      -0.77875800
H       -1.41489600       2.83228800       0.02219400
H       -2.72404600       2.20607700      -0.91673800
H       -3.08250300       3.16334900       1.83035000
H       -3.44790900       4.10562800       0.37105800
H       -5.51732200       2.95949300       1.11506100
H       -4.67413600       1.40873300       1.16722400
H       -5.70115000       2.70855900      -1.16828000
H       -5.24536000       1.13603100      -0.94350500
H       -2.24274000       1.40917800       0.43417600
C        0.57204400      -1.24213400      -2.84878300
N        0.16669200      -0.38326400      -1.71648900
C       -0.38161300      -2.41388100      -3.04362800
N       -0.59913300      -3.16019800      -1.79137700
H        0.67881300       0.54207200      -1.68835700
H        0.40409900      -0.85406400      -0.82974700
H        0.58760500      -0.63369400      -3.75553600
H        1.58931300      -1.58049800      -2.63559600
H        0.04237400      -3.04984800      -3.82964900
H       -1.35319500      -2.04836400      -3.39143100
H        0.24218100      -3.18274000      -1.21069900
H       -0.85780900      -4.12026000      -1.99722900
H       -0.85713800      -0.21993200      -1.70674100
65
3sa2dma2eda-11
S       -2.54589200      -1.82280500      -0.15181000
O       -2.93884500      -1.08449500       1.08043800
O       -1.07014000      -2.13112800      -0.08073600
O       -3.37372800      -2.96019700      -0.49456900
O       -2.68267300      -0.78550000      -1.35703000
H       -1.97624300      -0.04913000      -1.25864800
S        3.22483600      -1.03665600       0.11510600
O        2.84954600      -0.27626600       1.34417600
O        2.63486800      -0.35534700      -1.09096400
O        4.64226400      -1.31214000      -0.01823400
O        2.44630400      -2.42175300       0.19306200
H        1.79351300      -2.49711700       0.99517700
S       -1.15014300       2.30702100      -0.57229500
O       -1.08368000       2.23756200       0.93648900
O       -0.15459400       3.27644000      -1.10499800
O       -0.80087400       0.91068100      -1.08412200
O       -2.53605800       2.65654600      -1.00219100
C        1.01541300      -3.05679100      -2.63664200
N        0.55110500      -1.69588600      -2.28945900
C       -0.03282500      -0.94653600      -3.42554700
H       -0.14163200      -1.78297900      -1.51724500
H        1.76587100      -2.98690000      -3.42551700
H        1.45825800      -3.50306900      -1.74744600
H        0.16337600      -3.64613600      -2.97843000
H        0.70796600      -0.88917300      -4.22494200
H       -0.92456500      -1.46891400      -3.77444400
H       -0.29914700       0.04982200      -3.07273700
H        1.34583500      -1.15654600      -1.88065200
C       -5.45265000       0.94318300      -0.08379700
N       -4.19115100       1.32348400       0.57978100
C       -4.33990300       2.16189600       1.78493100
H       -3.67761600       0.45098200       0.82411100
H       -5.97058400       1.84427900      -0.41624200
H       -5.20894700       0.31573800      -0.94159300
H       -6.07979400       0.38511400       0.61379600
H       -4.88394500       3.07083500       1.52284800
H       -4.88419500       1.60915700       2.55324200
H       -3.33876400       2.42489600       2.12921500
H       -3.56842700       1.84825900      -0.10466800
C        3.48259600       3.01337900      -0.83065600
N        2.23638700       2.34127600      -0.40278200
C        4.64928200       2.42434800      -0.03016700
N        4.30775000       2.41878000       1.39230200
H        1.33888600       2.79541100      -0.73839000
H        2.24584300       2.34788700       0.62408700
H        3.60814000       2.86688700      -1.90514900
H        3.36628500       4.07996800      -0.62461500
H        5.54318900       3.02335200      -0.22901100
H        4.85845200       1.40937400      -0.38495600
H        4.96318900       2.94243900       1.95540200
H        4.23395400       1.47270700       1.75310000
H        2.24229300       1.34909000      -0.70634800
C       -0.29508800      -0.70905500       2.87801100
N        0.07083600      -0.09888000       1.58075200
C        0.61970900      -1.87390900       3.23409800
N        0.72881700      -2.83882300       2.12736500
H       -0.40039000       0.83453000       1.41322900
H       -0.24887500      -0.71116100       0.81160800
H       -0.22409600       0.05813200       3.65205500
H       -1.33666400      -1.02743800       2.78999200
H        0.21859800      -2.33585200       4.14409200
H        1.62598000      -1.50422000       3.45549600
H       -0.15918100      -2.96074900       1.63598600
H        1.01881900      -3.74627600       2.47841200
H        1.09926300       0.00185900       1.49548900
65
3sa2dma2eda-14
S        2.22466500      -1.97297700       0.66844400
O        1.57201800      -0.77098200      -0.04499000
O        1.90807600      -3.18639600      -0.14824500
O        1.62760100      -2.05420900       2.02987700
O        3.69214100      -1.71980200       0.70784200
H       -1.15949800      -2.61886800      -0.24603600
H        1.38422900       0.66070400       0.47939700
S       -3.11713500      -0.91560400      -0.45201100
O       -1.83384400      -1.34146800       0.30015000
O       -3.99094300      -2.08092100      -0.59111000
O       -3.72242600       0.22707300       0.31095700
O       -2.64544100      -0.38734300      -1.79166600
S        1.14585200       2.46938800      -0.66712300
O        2.48717400       2.30485600      -1.27435400
O        0.10107300       1.78954200      -1.49006600
O        1.19734100       1.62673900       0.71818600
O        0.78649000       3.82010800      -0.26386300
C       -3.14090000       2.81445600      -1.98187700
N       -2.47751400       2.42122600      -0.72250100
C       -2.38704300       3.49514200       0.28964200
H       -2.98298200       1.59212000      -0.32045600
H       -2.56556600       3.61085000      -2.45679100
H       -3.18338900       1.93237300      -2.62080300
H       -4.15247500       3.15989100      -1.76181000
H       -1.74340900       4.29140200      -0.08468700
H       -3.39107700       3.86912800       0.50063400
H       -1.94925100       3.07642400       1.19719300
H       -1.51411400       2.09920900      -0.96036000
C        4.55307800       1.49901200       1.23897100
N        4.36190300       0.75952800      -0.02622700
C        5.57009800       0.68251400      -0.86859900
H        4.04517300      -0.22272500       0.20927700
H        4.88806700       2.51366500       1.01758000
H        3.59480300       1.54067800       1.75632200
H        5.28875200       0.97659800       1.85213800
H        5.88523500       1.68965500      -1.14655100
H        6.36347000       0.17841300      -0.31455700
H        5.33423200       0.10964000      -1.76530300
H        3.59956700       1.23484300      -0.55894000
C       -1.13632800      -0.52928600       3.61182000
N       -0.43867700      -0.28592700       2.32780300
C       -2.60802400      -0.14953800       3.48246900
N       -2.75009600       1.20253900       2.94275400
H        0.45420500      -0.82849100       2.27295300
H       -0.26718400       0.70955400       2.17375200
H       -1.02391900      -1.58934400       3.85157300
H       -0.63417800       0.05786500       4.38492600
H       -3.08196200      -0.26462300       4.46408200
H       -3.09232700      -0.85858100       2.80329700
H       -3.15602700       1.84114900       3.61445300
H       -3.34383500       1.16053300       2.11851300
H       -1.02562000      -0.61910400       1.51935100
C       -0.83266700      -3.25107600      -2.21959300
N       -0.67195500      -3.43274300      -0.75343000
C        0.12067100      -2.20002300      -2.77958400
N       -0.07629600      -0.87550400      -2.15272900
H        0.35144600      -3.43998400      -0.46013700
H       -1.12636000      -4.28915700      -0.44499800
H       -0.61905700      -4.19924400      -2.71745900
H       -1.87420300      -2.97633500      -2.40783200
H       -0.06813700      -2.11634100      -3.85184300
H        1.15957300      -2.49970200      -2.61853900
H       -1.10735900      -0.63198600      -2.01881900
H        0.34895000      -0.10812400      -2.67442200
H        0.41117000      -0.84359900      -1.22498400
