57
4sa1ma1dma1eda-16
S        2.82158000      -1.64445800      -1.49502500
O        1.74880800      -1.72090000      -2.51881200
O        3.69757700      -2.79046300      -1.40019600
O        3.77150500      -0.41447100      -1.89591600
O        2.21094600      -1.21173700      -0.18699200
H        1.39594000      -2.12920600       0.77754100
H        3.27629100       0.42808100      -1.79919200
S       -4.43038100       0.34060300      -0.62269000
O       -5.41878700       1.16051500      -1.29387800
O       -4.64625800      -1.12449700      -0.74795200
O       -3.00789100       0.68915500      -0.83541200
O       -4.57662700       0.65606600       0.99165100
H       -5.51996200       0.68830600       1.20167000
S        1.33033800       2.59431100      -0.97910600
O        0.22408100       1.92715200      -1.67746900
O        0.93127600       3.10545400       0.35154600
O        2.60227400       1.84842300      -0.93349200
O        1.72685100       3.87754800      -1.87969000
H        0.91274700       4.29353000      -2.19505800
S        0.03648400      -1.40388800       2.27044300
O       -0.79953500      -0.66217200       1.23009800
O        1.06906600      -0.49749900       2.80102600
O       -0.80825200      -2.08812300       3.22893900
O        0.75337600      -2.55122500       1.43276700
C       -2.21516400       2.64614900       2.23891600
N       -1.51905200       1.98728100       1.11447600
H       -2.14260200       1.82675800       0.30496400
H       -0.67861700       2.51100800       0.80641700
H       -3.08491800       2.04821000       2.50678900
H       -1.53221800       2.72121800       3.08482800
H       -2.53322500       3.64212200       1.93157300
H       -1.20026500       1.03169600       1.36569800
C        3.36056900       1.98380300       2.32881200
N        3.25289800       0.70382500       1.59364900
C        4.45794100      -0.15274900       1.68396300
H        2.42999800       0.17790600       1.95080300
H        4.23653200       2.52605500       1.97030200
H        2.46402500       2.57044600       2.12899200
H        3.45649700       1.77341700       3.39466900
H        5.30236000       0.37396300       1.23815500
H        4.65789000      -0.36647900       2.73473400
H        4.26605000      -1.07532800       1.13915000
H        3.03808500       0.91080800       0.60461900
C       -1.54658500      -1.76893500      -2.05945600
C       -1.69578200      -2.89922300      -1.05160600
N       -2.49157300      -2.47251300       0.13501800
N       -0.57033500      -0.74263300      -1.61641300
H       -0.77240400       0.19209900      -1.98069400
H        0.39385100      -1.01813500      -1.94268300
H       -1.17401400      -2.18678200      -2.99627300
H       -2.50705200      -1.28617200      -2.23893600
H       -0.72421900      -3.25382000      -0.69777300
H       -2.22336600      -3.72685500      -1.52817300
H       -1.96479000      -1.74199600       0.67369000
H       -2.65239900      -3.25103900       0.77249400
H       -0.53431500      -0.63429300      -0.58887200
H       -3.41096300      -2.04239200      -0.15801300
57
4sa1ma1dma1eda-13
S       -3.79712300      -0.57748100      -1.07985400
O       -3.66605600       0.71340600      -0.38139600
O       -2.92452900      -0.65417900      -2.27923300
O       -3.73955600      -1.76824800      -0.22837000
O       -5.31155200      -0.63010300      -1.65047900
H       -5.44545400       0.13083800      -2.23166400
S       -1.07538300      -1.59094200       1.84205800
O       -0.87326300      -0.53071100       0.82397500
O       -0.69608500      -2.92154500       1.30131400
O       -0.43203600      -1.26069400       3.12533000
O       -2.62455500      -1.63054900       2.18220200
H       -3.13064000      -1.72600800       1.33100100
S        3.87561600      -1.01770300      -0.61470700
O        3.70383400      -1.17357500      -2.05585400
O        3.96300200       0.37944700      -0.13877300
O        2.89716800      -1.80747800       0.18522600
O        5.27547700      -1.71566000      -0.19862900
H        5.99055700      -1.28164200      -0.68502000
S        1.14454400       2.84261100      -0.57696300
O        0.91513900       2.13373800       0.72621300
O       -0.08143600       2.76284400      -1.41606500
O        1.71769700       4.16293500      -0.42718800
O        2.14847100       1.90563200      -1.41444700
H        2.88522500       1.53117800      -0.87364200
C        2.98708700       0.48151500       3.04750800
N        1.90797500      -0.01218100       2.16562400
H        1.10615300      -0.41506100       2.68659200
H        1.54587500       0.75470700       1.56538300
H        3.33927900      -0.33586000       3.67632400
H        3.79958400       0.84998800       2.42225600
H        2.59854400       1.28768100       3.66906600
H        2.26145800      -0.74551100       1.52799600
C       -2.35857000       3.38029000       0.72637900
N       -1.87501200       2.07349000       1.22674200
C       -2.09079300       1.87599800       2.67733300
H       -2.35618500       1.32370800       0.69873200
H       -1.83661200       4.17822100       1.25690900
H       -2.13372800       3.44367900      -0.33680200
H       -3.43346300       3.44573600       0.89762800
H       -1.60142300       2.68785600       3.21790100
H       -3.16233300       1.88332800       2.87949300
H       -1.66878000       0.91767500       2.97718800
H       -0.86355500       1.97703400       1.01540100
C        0.47544900      -0.61171300      -1.85581400
C        0.02474200      -2.05713400      -2.04963300
N        0.64316300      -2.90367700      -0.98953400
N       -0.42602500       0.33580000      -2.56004100
H       -0.27590700       1.31015000      -2.17936700
H       -1.43006500       0.07356200      -2.40490700
H        0.41607400      -0.35784200      -0.79711400
H        1.49249900      -0.45502600      -2.21386200
H        0.33394700      -2.44252100      -3.02405800
H       -1.06049300      -2.14517000      -1.95430300
H        1.59766800      -2.58186400      -0.72121200
H        0.69984400      -3.87739300      -1.28037200
H       -0.25218200       0.35486800      -3.56329700
H        0.06969300      -2.87989800      -0.08958700
57
4sa1ma1dma1eda-27
S       -4.26160100      -0.72213400      -0.24496400
O       -3.56068200       0.81447500      -0.37431600
O       -4.10350300      -1.03587500       1.18659800
O       -3.38531200      -1.53844700      -1.11029500
O       -5.61619000      -0.51844300      -0.71787800
H       -2.28818000      -2.53424900      -0.53200500
H       -4.29784200       1.43579000      -0.45485100
S       -0.45660600       2.94933800       0.13894200
O       -1.20113300       2.78982200       1.40693400
O       -0.03030800       4.27956400      -0.21987400
O        0.65167500       1.92427600       0.05964400
O       -1.46549900       2.48361900      -1.03982900
H       -2.07754000       1.77958900      -0.73287800
H        2.41145700       2.22221200      -0.21332200
S        3.74037000       0.57426900       0.06182200
O        3.66017300       0.56415600       1.54444500
O        5.04934300       0.28836600      -0.49211300
O        2.64335800      -0.29124600      -0.50571000
O        3.35819800       2.04976800      -0.42961100
S       -0.21214600      -2.18983300      -0.19721600
O        0.57921100      -2.60642400       0.99593100
O       -1.51101400      -3.07103100      -0.16925400
O       -0.65709300      -0.77428500      -0.08053900
O        0.51981700      -2.42045500      -1.45594200
C        4.39180300      -3.09503400       0.35434900
N        3.07452600      -2.89416500      -0.29141600
H        2.27199000      -3.11829100       0.31978900
H        2.93029500      -1.86648400      -0.51210200
H        4.52831400      -4.14631400       0.60676900
H        5.17390300      -2.75556700      -0.32369000
H        4.42646300      -2.48277400       1.25548300
H        2.95589000      -3.42547100      -1.15177900
C        1.46061800       1.15433600      -3.17532000
N        0.48442300       0.36929200      -2.38636500
C       -0.83794700       0.22056800      -3.04388800
H        0.85205800      -0.56709600      -2.16711800
H        1.07394100       2.16754200      -3.29092700
H        2.40667600       1.17898700      -2.63747900
H        1.58736300       0.68849100      -4.15355900
H       -1.22716100       1.21314600      -3.26763200
H       -0.70727600      -0.35493800      -3.96109800
H       -1.51469600      -0.30141900      -2.36744400
H        0.38137200       0.81494200      -1.45773700
C       -1.09138100      -0.18190400       3.28752100
N       -1.88144800       0.23038100       2.10766500
C        0.30408900       0.43282100       3.27639900
N        1.07141100       0.04671500       2.07119700
H       -1.45851700      -0.17395000       1.24011600
H       -1.87327400       1.25914200       1.96571800
H       -1.61355400       0.13837100       4.19075100
H       -1.04002800      -1.27410200       3.28530100
H        0.84635900       0.09085800       4.15978300
H        0.25130100       1.52386000       3.29539500
H        2.09396700       0.27946600       2.11468100
H        0.75117300       0.57420000       1.23234500
H        0.99001600      -0.95830500       1.84405200
H       -2.84859100      -0.14688000       2.08860200
