1a_2dma_H.log
 OpenBabel02281910163D
Gaussian users/kemi/kmacke/programs/G09D/g09/g09 # opt freq 6-31++g(d,p) wb97xd
 25 22  0  0  0  0  0  0  0  0999 V2000
   -0.1379   -0.4097    0.0377 H   0  0  0  0  0  0  0  0  0  0  0  0
    2.1965    2.4384   -1.0442 H   0  0  0  0  0  0  0  0  0  0  0  0
    0.9318   -0.5342    0.0313 N   0  0  0  0  0  0  0  0  0  0  0  0
    1.3826    0.4148   -0.0395 H   0  0  0  0  0  0  0  0  0  0  0  0
    1.3009   -1.3300   -1.1605 C   0  0  0  0  0  0  0  0  0  0  0  0
    0.8112   -2.3040   -1.1128 H   0  0  0  0  0  0  0  0  0  0  0  0
    2.3828   -1.4686   -1.1941 H   0  0  0  0  0  0  0  0  0  0  0  0
    0.9728   -0.8011   -2.0559 H   0  0  0  0  0  0  0  0  0  0  0  0
    1.3368   -1.1566    1.3112 C   0  0  0  0  0  0  0  0  0  0  0  0
    0.8415   -2.1228    1.4200 H   0  0  0  0  0  0  0  0  0  0  0  0
    1.0421   -0.5017    2.1319 H   0  0  0  0  0  0  0  0  0  0  0  0
    2.4186   -1.2994    1.3285 H   0  0  0  0  0  0  0  0  0  0  0  0
    2.3009    1.9836   -0.1406 N   0  0  0  0  0  0  0  0  0  0  0  0
    2.0004    2.6603    0.5565 H   0  0  0  0  0  0  0  0  0  0  0  0
    3.3002    1.8562   -0.0006 H   0  0  0  0  0  0  0  0  0  0  0  0
   -1.8273   -0.2585    0.0461 N   0  0  0  0  0  0  0  0  0  0  0  0
   -2.2445    0.3133   -1.2414 C   0  0  0  0  0  0  0  0  0  0  0  0
   -2.2049    0.5918    1.1831 C   0  0  0  0  0  0  0  0  0  0  0  0
   -2.2796   -1.1624    0.1573 H   0  0  0  0  0  0  0  0  0  0  0  0
   -1.7085    1.2525   -1.4093 H   0  0  0  0  0  0  0  0  0  0  0  0
   -1.9954   -0.3785   -2.0495 H   0  0  0  0  0  0  0  0  0  0  0  0
   -3.3201    0.5248   -1.2796 H   0  0  0  0  0  0  0  0  0  0  0  0
   -1.6638    1.5407    1.1185 H   0  0  0  0  0  0  0  0  0  0  0  0
   -3.2789    0.8139    1.2038 H   0  0  0  0  0  0  0  0  0  0  0  0
   -1.9323    0.0989    2.1192 H   0  0  0  0  0  0  0  0  0  0  0  0
  2 13  1  0  0  0  0
  3  1  1  0  0  0  0
  3  9  1  0  0  0  0
  4  3  1  0  0  0  0
  5  6  1  0  0  0  0
  5  3  1  0  0  0  0
  7  5  1  0  0  0  0
  8  5  1  0  0  0  0
  9 12  1  0  0  0  0
  9 10  1  0  0  0  0
  9 11  1  0  0  0  0
 13 15  1  0  0  0  0
 13 14  1  0  0  0  0
 16 19  1  0  0  0  0
 16 18  1  0  0  0  0
 17 16  1  0  0  0  0
 18 24  1  0  0  0  0
 18 25  1  0  0  0  0
 20 17  1  0  0  0  0
 21 17  1  0  0  0  0
 22 17  1  0  0  0  0
 23 18  1  0  0  0  0
M  END
$$$$
