3sa_2a_2dma_H.log
 OpenBabel02281910163D
Gaussian users/kemi/kmacke/programs/G09D/g09/g09 # opt freq 6-31++g(d,p) wb97xd
 50 43  0  0  0  0  0  0  0  0999 V2000
    2.1999   -2.0591   -0.1592 S   0  0  0  0  0  0  0  0  0  0  0  0
    0.9404   -1.5148   -0.7393 O   0  0  0  0  0  0  0  0  0  0  0  0
    2.2250   -3.5148   -0.8737 O   0  0  0  0  0  0  0  0  0  0  0  0
    3.4062   -1.3513   -0.5916 O   0  0  0  0  0  0  0  0  0  0  0  0
    3.0185   -3.9973   -0.5991 H   0  0  0  0  0  0  0  0  0  0  0  0
   -3.1658   -1.1684    0.3106 S   0  0  0  0  0  0  0  0  0  0  0  0
   -3.3203    0.1272    0.9899 O   0  0  0  0  0  0  0  0  0  0  0  0
   -4.5638   -1.9538    0.4798 O   0  0  0  0  0  0  0  0  0  0  0  0
   -3.0195   -1.0903   -1.1528 O   0  0  0  0  0  0  0  0  0  0  0  0
   -4.8223   -1.9685    1.4125 H   0  0  0  0  0  0  0  0  0  0  0  0
    0.6412    2.0189    0.1261 S   0  0  0  0  0  0  0  0  0  0  0  0
    1.1419    1.2972    1.3236 O   0  0  0  0  0  0  0  0  0  0  0  0
    1.7480    2.4340   -0.7520 O   0  0  0  0  0  0  0  0  0  0  0  0
   -0.3471    3.0648    0.4026 O   0  0  0  0  0  0  0  0  0  0  0  0
   -0.2380    0.9282   -0.6868 O   0  0  0  0  0  0  0  0  0  0  0  0
    0.2766    0.0946   -0.7832 H   0  0  0  0  0  0  0  0  0  0  0  0
    2.1153   -2.2920    1.2865 O   0  0  0  0  0  0  0  0  0  0  0  0
   -0.0407   -0.9129    2.4119 N   0  0  0  0  0  0  0  0  0  0  0  0
   -1.1536   -3.0260   -1.6390 N   0  0  0  0  0  0  0  0  0  0  0  0
   -1.3916   -3.7238   -0.9350 H   0  0  0  0  0  0  0  0  0  0  0  0
   -1.9239   -2.3147   -1.6516 H   0  0  0  0  0  0  0  0  0  0  0  0
   -0.2828   -2.5354   -1.3326 H   0  0  0  0  0  0  0  0  0  0  0  0
   -1.0222   -3.4652   -2.5471 H   0  0  0  0  0  0  0  0  0  0  0  0
    0.7442   -1.5515    2.1910 H   0  0  0  0  0  0  0  0  0  0  0  0
   -0.8839   -1.2468    1.9017 H   0  0  0  0  0  0  0  0  0  0  0  0
    0.2503    0.0294    2.0671 H   0  0  0  0  0  0  0  0  0  0  0  0
   -0.2204   -0.8880    3.4121 H   0  0  0  0  0  0  0  0  0  0  0  0
   -2.1275   -2.0227    0.9372 O   0  0  0  0  0  0  0  0  0  0  0  0
   -2.9172    2.5011   -0.4069 N   0  0  0  0  0  0  0  0  0  0  0  0
   -3.0638    1.5937    0.0753 H   0  0  0  0  0  0  0  0  0  0  0  0
   -1.9473    2.7842   -0.1542 H   0  0  0  0  0  0  0  0  0  0  0  0
   -3.0067    2.2890   -1.8708 C   0  0  0  0  0  0  0  0  0  0  0  0
   -3.8768    3.4934    0.1279 C   0  0  0  0  0  0  0  0  0  0  0  0
   -2.8295    3.2378   -2.3784 H   0  0  0  0  0  0  0  0  0  0  0  0
   -2.2489    1.5604   -2.1535 H   0  0  0  0  0  0  0  0  0  0  0  0
   -3.9983    1.9074   -2.1155 H   0  0  0  0  0  0  0  0  0  0  0  0
   -3.7041    4.4558   -0.3548 H   0  0  0  0  0  0  0  0  0  0  0  0
   -4.8937    3.1537   -0.0713 H   0  0  0  0  0  0  0  0  0  0  0  0
   -3.7213    3.5880    1.2022 H   0  0  0  0  0  0  0  0  0  0  0  0
    4.1479    1.3039   -0.1120 N   0  0  0  0  0  0  0  0  0  0  0  0
    3.9283    0.2989   -0.2284 H   0  0  0  0  0  0  0  0  0  0  0  0
    3.2624    1.7975   -0.3705 H   0  0  0  0  0  0  0  0  0  0  0  0
    4.4492    1.5785    1.3129 C   0  0  0  0  0  0  0  0  0  0  0  0
    5.2245    1.6873   -1.0533 C   0  0  0  0  0  0  0  0  0  0  0  0
    4.6511    2.6434    1.4338 H   0  0  0  0  0  0  0  0  0  0  0  0
    3.5742    1.3035    1.9012 H   0  0  0  0  0  0  0  0  0  0  0  0
    5.3193    0.9952    1.6165 H   0  0  0  0  0  0  0  0  0  0  0  0
    5.4042    2.7594   -0.9697 H   0  0  0  0  0  0  0  0  0  0  0  0
    6.1334    1.1370   -0.8075 H   0  0  0  0  0  0  0  0  0  0  0  0
    4.9071    1.4448   -2.0672 H   0  0  0  0  0  0  0  0  0  0  0  0
  1 17  1  0  0  0  0
  2  1  2  0  0  0  0
  3  5  1  0  0  0  0
  3  1  1  0  0  0  0
  4  1  2  0  0  0  0
  6  8  1  0  0  0  0
  6 28  2  0  0  0  0
  6  7  1  0  0  0  0
  8 10  1  0  0  0  0
  9  6  2  0  0  0  0
 11 14  2  0  0  0  0
 11 12  1  0  0  0  0
 13 11  2  0  0  0  0
 15 11  1  0  0  0  0
 16 15  1  0  0  0  0
 18 27  1  0  0  0  0
 19 22  1  0  0  0  0
 19 20  1  0  0  0  0
 21 19  1  0  0  0  0
 23 19  1  0  0  0  0
 24 18  1  0  0  0  0
 25 18  1  0  0  0  0
 26 18  1  0  0  0  0
 29 31  1  0  0  0  0
 29 30  1  0  0  0  0
 29 33  1  0  0  0  0
 32 29  1  0  0  0  0
 33 39  1  0  0  0  0
 34 32  1  0  0  0  0
 35 32  1  0  0  0  0
 36 32  1  0  0  0  0
 37 33  1  0  0  0  0
 38 33  1  0  0  0  0
 40 43  1  0  0  0  0
 41 40  1  0  0  0  0
 42 40  1  0  0  0  0
 43 45  1  0  0  0  0
 43 47  1  0  0  0  0
 43 46  1  0  0  0  0
 44 48  1  0  0  0  0
 44 49  1  0  0  0  0
 44 40  1  0  0  0  0
 50 44  1  0  0  0  0
M  RAD  3   7   2  12   2  17   2
M  END
$$$$
