3sa_1a_2dma_H.log
 OpenBabel02281910163D
Gaussian users/kemi/kmacke/programs/G09D/g09/g09 # opt freq 6-31++g(d,p) wb97xd
 46 40  0  0  0  0  0  0  0  0999 V2000
   -3.1919   -0.0885   -0.4577 S   0  0  0  0  0  0  0  0  0  0  0  0
   -2.5568   -0.8666   -1.5496 O   0  0  0  0  0  0  0  0  0  0  0  0
   -4.7437   -0.3445   -0.7292 O   0  0  0  0  0  0  0  0  0  0  0  0
   -5.2853    0.1366   -0.0858 H   0  0  0  0  0  0  0  0  0  0  0  0
    1.8808    1.8678   -0.4824 S   0  0  0  0  0  0  0  0  0  0  0  0
    2.5616    1.2443    0.6692 O   0  0  0  0  0  0  0  0  0  0  0  0
    2.7756    3.1299   -0.9273 O   0  0  0  0  0  0  0  0  0  0  0  0
    1.8746    1.0384   -1.6988 O   0  0  0  0  0  0  0  0  0  0  0  0
    2.8588    3.7537   -0.1918 H   0  0  0  0  0  0  0  0  0  0  0  0
   -0.0466   -2.1285    0.1749 S   0  0  0  0  0  0  0  0  0  0  0  0
    0.0514   -0.6793    0.0718 O   0  0  0  0  0  0  0  0  0  0  0  0
   -1.0466   -2.4916    1.3337 O   0  0  0  0  0  0  0  0  0  0  0  0
    1.1660   -2.8831    0.4048 O   0  0  0  0  0  0  0  0  0  0  0  0
   -0.7153   -2.7019   -1.1233 O   0  0  0  0  0  0  0  0  0  0  0  0
   -1.4995   -2.1306   -1.3616 H   0  0  0  0  0  0  0  0  0  0  0  0
   -2.9192    1.3483   -0.5353 O   0  0  0  0  0  0  0  0  0  0  0  0
   -0.7559    1.1305   -2.5154 N   0  0  0  0  0  0  0  0  0  0  0  0
   -1.0880    1.7944   -1.8076 H   0  0  0  0  0  0  0  0  0  0  0  0
    0.2590    0.9631   -2.3278 H   0  0  0  0  0  0  0  0  0  0  0  0
   -1.3158    0.2721   -2.3872 H   0  0  0  0  0  0  0  0  0  0  0  0
   -0.8952    1.5146   -3.4475 H   0  0  0  0  0  0  0  0  0  0  0  0
    0.5455    2.4072   -0.1351 O   0  0  0  0  0  0  0  0  0  0  0  0
    3.5439   -1.3009    0.1686 N   0  0  0  0  0  0  0  0  0  0  0  0
    3.1675   -0.3462    0.3573 H   0  0  0  0  0  0  0  0  0  0  0  0
    2.7307   -1.9355    0.2074 H   0  0  0  0  0  0  0  0  0  0  0  0
    4.1225   -1.3245   -1.1990 C   0  0  0  0  0  0  0  0  0  0  0  0
    4.5002   -1.6694    1.2406 C   0  0  0  0  0  0  0  0  0  0  0  0
    4.4405   -2.3403   -1.4349 H   0  0  0  0  0  0  0  0  0  0  0  0
    3.3618   -0.9816   -1.8990 H   0  0  0  0  0  0  0  0  0  0  0  0
    4.9752   -0.6457   -1.2306 H   0  0  0  0  0  0  0  0  0  0  0  0
    4.8835   -2.6726    1.0530 H   0  0  0  0  0  0  0  0  0  0  0  0
    5.3198   -0.9507    1.2452 H   0  0  0  0  0  0  0  0  0  0  0  0
    3.9820   -1.6451    2.1988 H   0  0  0  0  0  0  0  0  0  0  0  0
   -1.0088    1.3844    1.9194 N   0  0  0  0  0  0  0  0  0  0  0  0
   -0.4369    1.6503    1.0916 H   0  0  0  0  0  0  0  0  0  0  0  0
   -1.6380    0.6303    1.6056 H   0  0  0  0  0  0  0  0  0  0  0  0
   -0.1008    0.8750    2.9739 C   0  0  0  0  0  0  0  0  0  0  0  0
   -1.8215    2.5561    2.3268 C   0  0  0  0  0  0  0  0  0  0  0  0
   -0.6892    0.5615    3.8369 H   0  0  0  0  0  0  0  0  0  0  0  0
    0.4570    0.0341    2.5661 H   0  0  0  0  0  0  0  0  0  0  0  0
    0.5910    1.6683    3.2566 H   0  0  0  0  0  0  0  0  0  0  0  0
   -2.4338    2.2858    3.1879 H   0  0  0  0  0  0  0  0  0  0  0  0
   -1.1512    3.3753    2.5874 H   0  0  0  0  0  0  0  0  0  0  0  0
   -2.4556    2.8385    1.4873 H   0  0  0  0  0  0  0  0  0  0  0  0
   -2.8955   -0.6325    0.8974 O   0  0  0  0  0  0  0  0  0  0  0  0
   -1.8543   -1.9126    1.2492 H   0  0  0  0  0  0  0  0  0  0  0  0
  1 45  1  0  0  0  0
  2  1  2  0  0  0  0
  3  1  1  0  0  0  0
  3  4  1  0  0  0  0
  5 22  2  0  0  0  0
  5  6  1  0  0  0  0
  7  5  1  0  0  0  0
  7  9  1  0  0  0  0
  8  5  2  0  0  0  0
 10 13  2  0  0  0  0
 10 12  1  0  0  0  0
 11 10  2  0  0  0  0
 14 10  1  0  0  0  0
 15 14  1  0  0  0  0
 16  1  2  0  0  0  0
 17 20  1  0  0  0  0
 17 19  1  0  0  0  0
 17 18  1  0  0  0  0
 21 17  1  0  0  0  0
 23 25  1  0  0  0  0
 23 24  1  0  0  0  0
 23 27  1  0  0  0  0
 26 23  1  0  0  0  0
 27 32  1  0  0  0  0
 27 33  1  0  0  0  0
 28 26  1  0  0  0  0
 29 26  1  0  0  0  0
 30 26  1  0  0  0  0
 31 27  1  0  0  0  0
 34 38  1  0  0  0  0
 34 37  1  0  0  0  0
 35 34  1  0  0  0  0
 36 34  1  0  0  0  0
 37 41  1  0  0  0  0
 37 39  1  0  0  0  0
 38 43  1  0  0  0  0
 38 42  1  0  0  0  0
 40 37  1  0  0  0  0
 44 38  1  0  0  0  0
 46 12  1  0  0  0  0
M  RAD  2   6   2  45   2
M  END
$$$$
