4sa_2a_2dma_H.log
 OpenBabel02281910163D
Gaussian users/kemi/kmacke/programs/G09D/g09/g09 # opt freq 6-31++g(d,p) wb97xd
 57 49  0  0  0  0  0  0  0  0999 V2000
   -2.7213    2.2264   -0.3390 S   0  0  0  0  0  0  0  0  0  0  0  0
   -3.1175    1.2858   -1.3921 O   0  0  0  0  0  0  0  0  0  0  0  0
   -2.9758    1.7200    1.0313 O   0  0  0  0  0  0  0  0  0  0  0  0
   -3.7304    3.4630   -0.5683 O   0  0  0  0  0  0  0  0  0  0  0  0
   -4.0982   -0.0245   -0.7496 H   0  0  0  0  0  0  0  0  0  0  0  0
   -3.4968    4.1925    0.0235 H   0  0  0  0  0  0  0  0  0  0  0  0
   -1.9227   -2.2710    0.9331 S   0  0  0  0  0  0  0  0  0  0  0  0
   -1.0024   -1.6122    1.8501 O   0  0  0  0  0  0  0  0  0  0  0  0
   -1.3474   -3.6686    0.5420 O   0  0  0  0  0  0  0  0  0  0  0  0
   -1.9707   -1.4566   -0.4162 O   0  0  0  0  0  0  0  0  0  0  0  0
   -4.8294   -0.6748   -0.3941 N   0  0  0  0  0  0  0  0  0  0  0  0
   -5.2310   -1.5856   -1.4932 C   0  0  0  0  0  0  0  0  0  0  0  0
   -5.6462   -0.9930   -2.3086 H   0  0  0  0  0  0  0  0  0  0  0  0
   -5.9754   -2.2908   -1.1228 H   0  0  0  0  0  0  0  0  0  0  0  0
   -4.3461   -2.1218   -1.8342 H   0  0  0  0  0  0  0  0  0  0  0  0
   -5.9356    0.1322    0.1755 C   0  0  0  0  0  0  0  0  0  0  0  0
   -6.3624    0.7494   -0.6154 H   0  0  0  0  0  0  0  0  0  0  0  0
   -5.5258    0.7699    0.9584 H   0  0  0  0  0  0  0  0  0  0  0  0
   -6.6950   -0.5352    0.5838 H   0  0  0  0  0  0  0  0  0  0  0  0
   -1.0441   -1.1690   -0.7114 H   0  0  0  0  0  0  0  0  0  0  0  0
   -4.3840   -1.2349    0.3474 H   0  0  0  0  0  0  0  0  0  0  0  0
   -1.3514    2.7627   -0.4686 O   0  0  0  0  0  0  0  0  0  0  0  0
   -3.3057   -2.4514    1.3178 O   0  0  0  0  0  0  0  0  0  0  0  0
    1.5117   -1.7531   -0.7217 S   0  0  0  0  0  0  0  0  0  0  0  0
    2.6483   -1.6040   -1.6391 O   0  0  0  0  0  0  0  0  0  0  0  0
    2.0301   -1.3262    0.7293 O   0  0  0  0  0  0  0  0  0  0  0  0
    1.0102   -3.1166   -0.5513 O   0  0  0  0  0  0  0  0  0  0  0  0
    4.2144   -1.3258   -0.9198 H   0  0  0  0  0  0  0  0  0  0  0  0
   -0.4110   -3.5689    0.1990 H   0  0  0  0  0  0  0  0  0  0  0  0
    3.0447    2.0978    0.5304 S   0  0  0  0  0  0  0  0  0  0  0  0
    1.8417    1.2933    0.8855 O   0  0  0  0  0  0  0  0  0  0  0  0
    2.9366    2.7226   -0.7933 O   0  0  0  0  0  0  0  0  0  0  0  0
    1.9900   -0.3363    0.8252 H   0  0  0  0  0  0  0  0  0  0  0  0
    5.0712   -1.0557   -0.3951 N   0  0  0  0  0  0  0  0  0  0  0  0
    6.1910   -0.8555   -1.3452 C   0  0  0  0  0  0  0  0  0  0  0  0
    6.3992   -1.7968   -1.8544 H   0  0  0  0  0  0  0  0  0  0  0  0
    7.0729   -0.5245   -0.7962 H   0  0  0  0  0  0  0  0  0  0  0  0
    5.9017   -0.0966   -2.0715 H   0  0  0  0  0  0  0  0  0  0  0  0
    5.3277   -2.0719    0.6552 C   0  0  0  0  0  0  0  0  0  0  0  0
    5.5228   -3.0330    0.1787 H   0  0  0  0  0  0  0  0  0  0  0  0
    4.4412   -2.1436    1.2847 H   0  0  0  0  0  0  0  0  0  0  0  0
    6.1897   -1.7646    1.2479 H   0  0  0  0  0  0  0  0  0  0  0  0
    4.8334   -0.1501    0.0527 H   0  0  0  0  0  0  0  0  0  0  0  0
    0.4159   -0.7805   -1.0623 O   0  0  0  0  0  0  0  0  0  0  0  0
    4.2990    1.3679    0.7513 O   0  0  0  0  0  0  0  0  0  0  0  0
    0.6370    1.8005   -2.0996 N   0  0  0  0  0  0  0  0  0  0  0  0
    0.6453    0.7941   -1.8469 H   0  0  0  0  0  0  0  0  0  0  0  0
    1.5122    2.2339   -1.7486 H   0  0  0  0  0  0  0  0  0  0  0  0
    0.5508    1.9166   -3.1059 H   0  0  0  0  0  0  0  0  0  0  0  0
   -0.1711    2.2359   -1.6072 H   0  0  0  0  0  0  0  0  0  0  0  0
   -0.5872    1.1287    2.2899 N   0  0  0  0  0  0  0  0  0  0  0  0
    0.2328    1.4450    1.7461 H   0  0  0  0  0  0  0  0  0  0  0  0
   -0.4860    1.4138    3.2613 H   0  0  0  0  0  0  0  0  0  0  0  0
   -1.4717    1.5069    1.8847 H   0  0  0  0  0  0  0  0  0  0  0  0
   -0.6528    0.0973    2.2276 H   0  0  0  0  0  0  0  0  0  0  0  0
    2.9722    3.2685    1.6320 O   0  0  0  0  0  0  0  0  0  0  0  0
    3.6859    3.9053    1.4787 H   0  0  0  0  0  0  0  0  0  0  0  0
  1  3  1  0  0  0  0
  2  1  2  0  0  0  0
  4  1  1  0  0  0  0
  4  6  1  0  0  0  0
  5 11  1  0  0  0  0
  7 23  2  0  0  0  0
  7  8  2  0  0  0  0
  9  7  1  0  0  0  0
 10  7  1  0  0  0  0
 11 16  1  0  0  0  0
 11 21  1  0  0  0  0
 12 14  1  0  0  0  0
 12 11  1  0  0  0  0
 13 12  1  0  0  0  0
 15 12  1  0  0  0  0
 16 19  1  0  0  0  0
 16 18  1  0  0  0  0
 17 16  1  0  0  0  0
 20 10  1  0  0  0  0
 22  1  2  0  0  0  0
 24 27  1  0  0  0  0
 24 26  1  0  0  0  0
 25 24  2  0  0  0  0
 26 33  1  0  0  0  0
 28 34  1  0  0  0  0
 29  9  1  0  0  0  0
 30 45  2  0  0  0  0
 30 31  1  0  0  0  0
 30 56  1  0  0  0  0
 32 30  2  0  0  0  0
 34 43  1  0  0  0  0
 34 39  1  0  0  0  0
 35 37  1  0  0  0  0
 35 34  1  0  0  0  0
 36 35  1  0  0  0  0
 38 35  1  0  0  0  0
 39 42  1  0  0  0  0
 39 41  1  0  0  0  0
 40 39  1  0  0  0  0
 44 24  2  0  0  0  0
 46 47  1  0  0  0  0
 46 48  1  0  0  0  0
 46 50  1  0  0  0  0
 49 46  1  0  0  0  0
 51 53  1  0  0  0  0
 52 51  1  0  0  0  0
 54 51  1  0  0  0  0
 55 51  1  0  0  0  0
 57 56  1  0  0  0  0
M  RAD  3   3   2  27   2  31   2
M  END
$$$$
