71
4sa1ma1dma2tma-15
S       -2.64508500       0.56637600       1.77200800
O       -1.05048300       0.63054700       1.34863200
O       -2.65930800       1.27330200       3.04492300
O       -2.95075200      -0.88634400       1.83488100
O       -3.34663200       1.23651600       0.66329000
H       -1.81428500      -2.01089500       2.01662900
H       -0.85344500      -0.11418300       0.72277300
S        0.73379400       0.96050900      -2.73673100
O        0.82519500      -0.48727500      -3.04396600
O       -0.22688400       1.69250800      -3.55634500
O        0.06837200       1.03650700      -1.25306900
O        2.06489700       1.59047400      -2.59067700
H        2.88667400       1.96206300      -1.16384400
H        0.72854200       0.69134400      -0.58980100
S        3.23001800       0.82865600       0.62068500
O        3.20688700       2.16798700      -0.24393700
O        4.14697200      -0.12124700      -0.03330600
O        3.56574700       1.23731900       1.97610100
O        1.81498500       0.28900800       0.54023600
S       -0.46683500      -2.84081500       0.53413800
O       -1.34783200      -3.82609200      -0.07646100
O       -0.55867300      -1.50294700      -0.14823000
O       -0.96833300      -2.55539900       2.04326900
O        0.94033800      -3.23179200       0.71531700
C        3.15051400      -3.01193200      -2.14641100
N        2.48731600      -1.96494600      -1.34340200
H        3.17314200      -1.30402900      -0.92734800
H        1.83105100      -1.41010200      -1.93221700
H        3.84993100      -3.56121300      -1.51669200
H        2.39628300      -3.69425900      -2.53777200
H        3.68496500      -2.54125600      -2.97102400
H        1.94669000      -2.37511900      -0.56302300
C        2.29806100      -1.59277100       3.30689600
N        1.11185200      -0.76735900       2.97403300
C        0.83370500       0.32039200       3.94105400
H        1.27463000      -0.34323100       2.03312000
H        2.15374400      -2.04554500       4.28889900
H        2.38928000      -2.36912600       2.54725900
H        3.17656800      -0.94624500       3.30579300
H        0.72519000      -0.10769400       4.93873200
H        1.67492800       1.01449300       3.91321400
H       -0.08952100       0.81902000       3.64550200
H        0.29250500      -1.38163900       2.86207100
N       -0.95388900       3.33282900       0.12074300
C       -1.82490300       3.57478800      -1.06093700
C       -1.54481000       3.89065400       1.36667400
C        0.42749800       3.84136000      -0.09716900
H       -0.91542300       3.60669500       2.20961100
H       -1.58877100       4.97729800       1.27214400
H       -2.53986500       3.47069100       1.50410800
H       -1.37628800       3.08917700      -1.92942500
H       -2.80349400       3.14644800      -0.84505900
H       -1.89965700       4.65259700      -1.22010200
H        0.80249200       3.46049100      -1.04466700
H        0.39500600       4.93245300      -0.11145300
H        1.06961200       3.48926100       0.70996700
H       -0.89364500       2.30831400       0.24368300
N       -2.61232900      -1.23155000      -1.95156500
C       -2.09099700      -2.08065500      -3.05419500
C       -3.74165900      -1.88031400      -1.23102700
C       -2.97538000       0.13310600      -2.41506800
H       -4.03043200      -1.24343300      -0.39451200
H       -4.57157900      -2.00641100      -1.92975000
H       -3.39912900      -2.84446600      -0.85467900
H       -1.20649500      -1.59509400      -3.47023100
H       -1.82382900      -3.05152200      -2.63461200
H       -2.87015300      -2.19257900      -3.81124600
H       -2.12257500       0.58073300      -2.92724400
H       -3.82364400       0.04800800      -3.09842700
H       -3.24862800       0.71929600      -1.53646300
H       -1.82943800      -1.16110100      -1.26831300
71
4sa1ma1dma2tma-24
S       -0.12922300       2.66995300       1.37412300
O        1.18444800       1.97611000       1.24370900
O       -0.05941900       4.05005300       1.80412100
O       -0.95804100       2.43992200       0.14819300
O       -0.90972400       1.88972300       2.54241100
H       -0.98405900       0.94698000       2.26045700
H       -0.41401700       1.84461100      -1.18912700
S        2.59623500      -1.34082800      -1.17443100
O        2.28532300      -2.69901100      -1.65501200
O        1.54094900      -0.81183600      -0.27232700
O        3.95121400      -1.14725700      -0.65614600
O        2.54329500      -0.36688500      -2.47891600
H        1.64745200      -0.47588000      -2.89744200
S       -1.62893500      -1.91647200       1.83321700
O       -0.66907000      -3.01708500       1.58003100
O       -2.79648900      -1.96542900       0.94355300
O       -1.87331200      -1.63052900       3.23987500
O       -0.80413700      -0.54588500       1.36662400
H       -0.73957900      -0.48419000       0.38633500
S       -0.94263900       0.26153600      -2.56864600
O       -1.42894400      -0.40409700      -1.30503400
O        0.00310400      -0.59981000      -3.29957500
O       -2.05667100       0.78625700      -3.34793200
O       -0.05015000       1.48775300      -2.05931700
C       -1.19915000      -4.05783600      -1.97356700
N       -0.42951000      -3.07332800      -1.19031800
H       -0.81196600      -2.12170500      -1.31942200
H       -0.47803100      -3.24991100      -0.16740700
H       -1.15628900      -3.78287400      -3.02735800
H       -0.76792100      -5.04869600      -1.83271000
H       -2.23252200      -4.05263000      -1.62708200
H        0.57431500      -3.03209100      -1.45934800
C        2.21196200       3.51100500      -1.54498200
N        2.61909000       2.16805700      -1.07003800
C        4.04212300       2.09772900      -0.66301200
H        2.02062800       1.92344500      -0.24740000
H        2.86150800       3.81158300      -2.36816800
H        1.17968400       3.46902700      -1.88601000
H        2.30207900       4.21358000      -0.71529000
H        4.66575500       2.44012200      -1.49003700
H        4.18672600       2.74194600       0.20563700
H        4.28601700       1.06067400      -0.43155600
H        2.43239200       1.44135400      -1.77878100
N       -3.72557600       0.88386000      -0.31588700
C       -3.82200300       2.19394600      -1.01665700
C       -4.61706100      -0.13272500      -0.93416600
C       -3.96651700       1.02888000       1.14403000
H       -4.45334900      -1.08040500      -0.42231900
H       -5.65251000       0.19763000      -0.82782700
H       -4.34786300      -0.21954900      -1.98739700
H       -3.11567900       2.88137300      -0.55255100
H       -3.56001900       2.04283200      -2.06424000
H       -4.84593700       2.56080000      -0.91815800
H       -3.23041700       1.72307600       1.54919600
H       -4.97585000       1.42018700       1.28893200
H       -3.86315400       0.05030500       1.61151700
H       -2.76563100       0.51574100      -0.46215600
N        2.08586100      -0.77901000       2.48430100
C        1.29389400      -0.37122100       3.67403100
C        2.34833900      -2.24401200       2.47500600
C        3.34671100      -0.00007200       2.38209000
H        2.95304700      -2.48134000       1.59968400
H        2.88789500      -2.50458800       3.38806300
H        1.39049900      -2.76316700       2.42171800
H        1.06439900       0.69021500       3.58960300
H        0.36985700      -0.94878100       3.71316900
H        1.89546700      -0.56148200       4.56555200
H        3.08582700       1.05724300       2.33705200
H        3.95735100      -0.21053500       3.26288900
H        3.86462900      -0.31129000       1.47373300
H        1.54439700      -0.57779300       1.62294800
71
4sa1ma1dma2tma-11
S       -3.12895500      -0.85696000       1.95497000
O       -2.81914000       0.66540000       2.39839300
O       -2.59712800      -1.67551900       3.03328900
O       -2.30025200      -0.98410100       0.68461700
O       -4.55513400      -0.96374700       1.65624900
H       -1.37024700      -2.19958200       0.13314800
H       -2.63327200       1.22267400       1.60165800
S       -0.91939000       2.57172100      -0.30615300
O        0.18440400       2.24018300       0.63597300
O       -2.22712900       2.04242100       0.15237200
O       -0.93645700       3.96920300      -0.72010800
O       -0.57637800       1.77439100      -1.66441700
H       -0.28472200       0.84877300      -1.45293000
S        3.42386500      -0.24351800       0.71164800
O        2.73369800      -1.45092100       1.27943600
O        2.82771700       0.98067700       1.28012300
O        4.87431600      -0.31156700       0.71104300
O        3.03505600      -0.26310300      -0.86063200
H        2.05260800      -0.38841000      -0.96692700
S       -0.19006700      -1.89167500      -1.62328600
O        0.41473100      -0.61829100      -1.08663700
O       -0.64000000      -2.71097100      -0.32340200
O       -1.36935400      -1.62691700      -2.43823400
O        0.83646700      -2.75511900      -2.22927100
H        2.69132200      -2.78757100       0.28760000
C        0.20224100      -0.01405000       3.42531500
N        0.23989400      -0.21834800       1.96028900
H        0.33718100       0.68710700       1.46233200
H        1.04245500      -0.80754700       1.69321100
H       -0.63796100       0.63558200       3.66375400
H        0.05853300      -0.97576700       3.91502600
H        1.14680700       0.43805100       3.72663300
H       -0.62357100      -0.64263600       1.59977000
N        2.70600600      -3.56064600      -0.41955200
H        2.06327600      -3.24954600      -1.18287700
C        4.08670700      -3.67899700      -0.93472100
H        4.39100100      -2.70706000      -1.32388300
H        4.75052800      -3.96617000      -0.11816100
H        4.11471500      -4.42929900      -1.72625000
C        2.15000500      -4.79160800       0.18048700
H        2.74776300      -5.07219400       1.04894400
H        1.12046200      -4.58995900       0.47736500
H        2.16661100      -5.59237400      -0.56031600
N        2.78809700       3.32230500      -0.22691700
C        2.17699000       4.61006800       0.19861500
C        4.23769900       3.27115200       0.09769100
C        2.54802100       3.04531800      -1.66904900
H        4.64364700       2.30892300      -0.21161800
H        4.73888700       4.08738900      -0.42674500
H        4.35984000       3.37386400       1.17505400
H        1.11596300       4.60152000      -0.05329500
H        2.30295800       4.71192700       1.27660800
H        2.69040200       5.42303500      -0.31957400
H        1.47687400       3.07845100      -1.86431400
H        3.06738900       3.80303500      -2.25954500
H        2.93505100       2.05048700      -1.89233200
H        2.33188900       2.55762000       0.30687300
N       -3.94814800       0.15771700      -1.41319200
C       -3.44215700       0.74961300      -2.67939500
C       -4.47199500      -1.22086500      -1.61733500
C       -4.96470600       1.03937900      -0.77503300
H       -4.79029400      -1.60630000      -0.64859100
H       -5.31347900      -1.17036900      -2.31173500
H       -3.66710500      -1.83080800      -2.02652600
H       -3.04082100       1.73820500      -2.46448500
H       -2.65340000       0.10823100      -3.06907400
H       -4.27658900       0.81557400      -3.38113400
H       -4.50440000       2.00874000      -0.58867300
H       -5.81065400       1.13434700      -1.45930100
H       -5.27364400       0.58049800       0.16439100
H       -3.15436200       0.06503800      -0.75314200
