71
4sa1ma3eda-18
S       -3.95473100      -2.30904300      -0.48651000
O       -2.58811100      -2.87801900      -0.50807100
O       -4.46232400      -2.12930900       0.88553600
O       -4.11590900      -1.14585500      -1.37120900
O       -4.90833300      -3.41833900      -1.17907700
H       -4.97392900      -4.17563700      -0.58132500
S       -2.95511200       1.93405800      -0.42375700
O       -2.70600200       2.18198200      -1.85280300
O       -2.00392400       0.88792400       0.09984400
O       -2.95511700       3.12482700       0.43563700
O       -4.40736500       1.30836800      -0.25852600
H       -4.42605500       0.42457500      -0.70825100
S        3.21378200       0.19266800      -1.78735400
O        2.22611000       0.69603300      -2.77184300
O        2.86721100      -1.19379500      -1.34179600
O        4.60801700       0.37387200      -2.15430000
O        3.02105600       1.09439500      -0.45769600
H        2.21202600       0.77015000       0.05119700
S        0.86769800      -0.28963400       2.17780700
O        0.13530100       0.70092200       3.01919800
O        2.27311300      -0.45272500       2.63265400
O        0.13513300      -1.59179600       2.13045700
O        0.88754600       0.24576100       0.72102700
C       -2.94045300      -0.06269700       3.57623300
N       -2.51352000      -0.71124900       2.31880600
H       -1.60768700      -1.21111800       2.41971900
H       -3.23650600      -1.35101100       1.94539900
H       -2.11830600       0.55472400       3.93562000
H       -3.82415800       0.54411300       3.37808400
H       -3.17692100      -0.82969100       4.31359200
H       -2.34719100      -0.00906000       1.57007900
C        6.42615700      -1.25767900       0.19940700
N        6.68000200      -2.63395100       0.63457800
C        5.34931700      -0.64399200       1.08467100
N        4.16220700      -1.53518100       1.07966300
H        7.34653000      -2.66846200       1.39851900
H        7.05193700      -3.19955300      -0.11854300
H        7.31241100      -0.61127100       0.22163400
H        6.06218300      -1.26641300      -0.83227300
H        5.03687300       0.33424900       0.71785500
H        5.68389200      -0.54934900       2.12152800
H        3.71668400      -1.53131400       0.13481400
H        3.42346300      -1.20632400       1.75597100
H        4.48386500      -2.48459500       1.28578900
C        0.69173400       4.34386200      -0.24403500
N        0.82108500       3.22138300      -1.16874100
C        0.74029100       3.83380500       1.19220100
N       -0.29152100       2.79468700       1.38009100
H        1.76668700       2.84309800      -1.16668600
H        0.62089700       3.52285900      -2.11587300
H        1.46982600       5.11162200      -0.35820900
H       -0.27635800       4.82388000      -0.42287300
H        0.56987400       4.64096900       1.90702500
H        1.70680500       3.37079200       1.41010800
H       -1.25911700       3.14304600       1.27455400
H       -0.17942600       2.22912800       2.24737100
H       -0.17645000       2.08127400       0.64679100
C       -0.96763600      -0.67758000      -2.62313100
N       -0.43041100       0.61904800      -2.14659000
C       -0.08213500      -1.83190300      -2.18925800
N       -0.04617000      -1.95014500      -0.70813500
H       -1.05966500       1.38794800      -2.42442200
H        0.56031000       0.77009900      -2.43982900
H       -1.98881800      -0.77913600      -2.24495700
H       -0.99867600      -0.64956000      -3.71350100
H        0.94569200      -1.70687600      -2.53314600
H       -0.50041500      -2.75960500      -2.58298900
H        0.31746300      -1.09726900      -0.21759200
H        0.57474400      -2.70158700      -0.41329700
H       -0.99968900      -2.17620000      -0.36262300
H       -0.48554000       0.67370900      -1.11873100
71
4sa1ma3eda-45
S        2.75999000       2.19730600      -0.16302600
O        2.27981500       0.85097300      -0.59863800
O        1.98599400       2.62451100       1.04361400
O        2.38182200       3.21972100      -1.32413400
O        4.20585200       2.27060000      -0.01777000
H        1.39487700       3.23158700      -1.42096200
H        2.78589100      -1.89989400       1.77129500
S       -1.02075500       3.19885500      -0.00028600
O       -1.01854200       1.95047100       0.79155600
O       -0.31247100       2.98367900      -1.30411600
O       -2.35922200       3.77489800      -0.15418800
O       -0.16574000       4.27764700       0.79957600
H        0.71184200       3.86153700       0.98937900
S       -2.06849400      -2.22843700       0.72183200
O       -1.73897000      -2.63005200      -0.67482400
O       -1.75423600      -0.77572900       0.90479300
O       -3.40137500      -2.59942800       1.17082200
O       -1.06197500      -3.01858700       1.67979200
H       -0.14312100      -2.88642800       1.33028700
S        1.63830700      -2.84523300      -0.80967000
O        1.25224300      -2.32737900       0.55738500
O        1.50245200      -1.78140300      -1.81690600
O        2.94927400      -3.49183000      -0.79718600
O        0.57990500      -3.98674700      -1.13348100
H       -0.33072600      -3.60299200      -1.04224400
N        4.37638600      -0.96369200      -0.52211900
H        3.59613900      -0.32606300      -0.78556100
H        4.15182200      -1.90264600      -0.87974500
C        5.67965500      -0.44643100      -0.99180300
H        5.79725100       0.56894200      -0.61464400
H        6.47779300      -1.09256200      -0.62602700
H        5.68578200      -0.43405500      -2.08150400
C       -1.01355200      -0.29689900      -2.85649100
N       -0.44281900       0.16600700      -1.56941500
C       -2.40888900       0.24485500      -3.11379600
N       -3.34857200      -0.19091700      -2.07550300
H        0.48817100      -0.26814800      -1.45733600
H       -1.01340000      -0.11831300      -0.75512800
H       -0.33246800       0.02524100      -3.64605300
H       -1.01254200      -1.38786500      -2.82750800
H       -2.69903300      -0.09833100      -4.11564700
H       -2.38697200       1.34057600      -3.13589900
H       -3.18206900      -1.16422800      -1.82017300
H       -4.31053100      -0.14534900      -2.39755900
H       -0.33361900       1.19601400      -1.53327000
C        3.01047400      -0.16615600       2.90344700
N        3.53417800      -1.34815200       2.19537400
C        1.49438100      -0.16093900       3.09382600
N        0.79322100       0.12579100       1.81678100
H        4.02199900      -1.96523100       2.83425300
H        4.31236500      -1.03360500       0.52240400
H        3.46967900      -0.10291500       3.89360000
H        3.29883800       0.74638000       2.37023600
H        1.20568500       0.62027800       3.79992100
H        1.13661300      -1.12438400       3.46665000
H        0.97930300       1.09384900       1.49988500
H       -0.22753300      -0.00108100       1.85850300
H        1.10551900      -0.52012500       1.07563900
C       -5.53372000      -0.19466400       1.22314800
N       -5.60337400      -0.96724100      -0.01559900
C       -5.09602200       1.24001300       0.95414800
N       -3.74286000       1.27360800       0.35334700
H       -6.55957200      -1.17026300      -0.27858200
H       -5.10783200      -1.84615400       0.10617000
H       -6.49288100      -0.15785500       1.75396000
H       -4.81288600      -0.66988300       1.89682400
H       -5.06935000       1.82418700       1.87786300
H       -5.77657500       1.72959100       0.25284300
H       -3.02864600       0.83035500       0.94607800
H       -3.41950200       2.23972900       0.17688900
H       -3.68077400       0.73298600      -0.55170900
71
4sa1ma3eda-23
S       -3.13001900       0.53556600      -1.71732500
O       -2.10767100       1.31259800      -2.44792700
O       -3.25786100       1.00677000      -0.29383300
O       -4.40795300       0.37359600      -2.38762000
O       -2.54174100      -0.96275900      -1.56707200
H       -1.86893100      -0.97738400      -0.81459000
S        4.46649100      -1.52364000      -0.70699000
O        4.70021000      -1.74476000       0.72840100
O        3.53410000      -2.50698800      -1.30634300
O        4.13041300      -0.13876800      -1.07419400
O        5.89025000      -1.76430500      -1.43558500
H        6.26445800      -2.59251800      -1.10475200
S        2.47114500       2.39632500       0.42074500
O        1.59551000       1.20148400       0.73563500
O        2.38632500       2.70590200      -1.02168800
O        2.23535700       3.50676200       1.32908500
O        3.95552400       1.88710000       0.71606000
H        4.17473000       1.18501100       0.05362600
S       -0.75989600      -1.71214600       1.54554100
O        0.43609000      -2.60031900       1.55275300
O       -0.72557300      -0.72212600       2.65553200
O       -0.68593300      -0.91487400       0.20770600
O       -2.02749700      -2.49252900       1.52580800
C        2.52919700      -0.57820800       3.72538200
N        2.48660900      -0.91262000       2.28735400
H        2.18169000      -0.08575700       1.73362500
H        3.39722200      -1.21450100       1.90688800
H        1.51569500      -0.33543500       4.04441700
H        2.89562200      -1.43804600       4.28594400
H        3.19102100       0.27487200       3.87534400
H        1.78579300      -1.66163400       2.09102400
C       -5.15722600      -1.92252100       0.16530700
N       -4.31484000      -1.15861400       1.12001200
C       -6.44113900      -1.14273300      -0.08672100
N       -7.07657800      -0.83522800       1.19744600
H       -3.44874300      -1.69603100       1.39664100
H       -4.89626300      -0.91706900       1.92686000
H       -4.58407700      -2.06088600      -0.75200500
H       -5.35826800      -2.89885600       0.61488900
H       -7.07484100      -1.71813300      -0.77303100
H       -6.18504700      -0.20849100      -0.59532300
H       -7.65531500      -1.60249900       1.52219500
H       -7.66773700      -0.01556400       1.13316100
H       -3.99052500      -0.27485100       0.67278200
C       -1.24427000       3.13857900       1.72252300
N       -1.07361200       1.70617900       1.38623900
C       -1.55793600       3.90662600       0.44025000
N       -0.56908800       3.58895500      -0.58200500
H       -1.08138100       1.03936200       2.17450700
H       -0.14404800       1.56200900       0.95503700
H       -2.05694300       3.24149200       2.44520900
H       -0.31033500       3.48338200       2.17398800
H       -1.62692400       4.97530400       0.68726900
H       -2.53742000       3.58548700       0.07181600
H        0.29339600       4.11054500      -0.45683600
H       -0.93127300       3.77880800      -1.50870200
H       -1.79630100       1.39491900       0.71173800
C        1.24439300      -0.08855700      -2.75422400
C        0.61443200      -1.47314000      -2.80087000
N        0.85728700      -2.23054200      -1.54271600
N        0.54277300       0.83713800      -1.83502900
H        1.09714700       1.71227100      -1.72176500
H        0.50788800       0.46823100      -0.87414700
H        2.29150300      -0.13364900      -2.43864800
H        1.20229200       0.34645800      -3.75417100
H        1.06625300      -2.03219000      -3.62211800
H       -0.46669900      -1.41314700      -2.95530500
H        1.88479900      -2.31854000      -1.34475800
H        0.47750000      -3.17460400      -1.59883800
H       -0.43582300       1.06088200      -2.12080200
H        0.35738200      -1.76838100      -0.73541900
