29
1msa1ma1tma-01
S        1.87873500      -0.22247000      -0.00001800
O        1.45118900      -1.63082700      -0.00019700
O        1.46611000       0.52165000       1.23087100
O        1.46625500       0.52195600      -1.23076700
H       -0.00757100       1.50741500      -0.79571300
C        3.66414000      -0.21908300       0.00007600
H        4.00161900      -0.73995400       0.89640700
H        4.00172100      -0.73920900      -0.89664900
H        4.01021300       0.81459500       0.00052900
N       -0.65677600       1.67055900      -0.00005300
H       -1.33658500       0.83827500      -0.00015200
C       -1.32133900       2.98112800      -0.00019200
H       -1.94644400       3.07327300       0.88887100
H       -0.57416500       3.77522000       0.00038300
H       -1.94537300       3.07359700      -0.88997000
H       -0.00788800       1.50747900       0.79585900
N       -2.20778600      -0.62572500      -0.00006900
C       -3.65037100      -0.40920800      -0.00006900
H       -3.94135700       0.15943000       0.88859800
H       -3.94154800       0.15777700      -0.88971600
H       -4.20762000      -1.36060000       0.00087600
C       -1.77809000      -1.34242600      -1.20507000
H       -2.03246300      -0.75399300      -2.09218500
H       -0.69595100      -1.49147100      -1.17330700
H       -2.27125000      -2.32473000      -1.28414300
C       -1.77802700      -1.34154400       1.20543100
H       -0.69583400      -1.49021700       1.17397500
H       -2.03279800      -0.75266400       2.09214500
H       -2.27084100      -2.32397900       1.28502700
29
1msa1ma1tma-02
S        1.84819100      -0.29865600      -0.00329200
O        1.48344200      -1.69129800      -0.30199100
O        1.21922500       0.24761100       1.22374100
O        1.61656700       0.62896700      -1.17033100
H        0.21608700       1.29801200      -1.00527400
C        3.61538700      -0.26445700       0.25430900
H        3.84290500      -0.91299500       1.10079100
H        4.09724300      -0.63336100      -0.65131200
H        3.91516500       0.76269300       0.46215300
N       -0.75486700       1.69740500      -0.77592200
H       -1.13311400       2.14671600      -1.60617600
C       -0.65753200       2.63262700       0.36588200
H       -1.65553400       2.95195500       0.67213600
H       -0.15534700       2.09784500       1.17333800
H       -0.06078400       3.50024200       0.08195400
H       -1.37733900       0.85863300      -0.51235400
N       -2.29002600      -0.47372000      -0.00169500
C       -1.96681300      -0.68519000       1.41270900
H       -0.88501100      -0.78514300       1.52958000
H       -2.29871800       0.18054100       1.99466300
H       -2.46668300      -1.58400100       1.80824200
C       -3.71680700      -0.23044500      -0.18589800
H       -4.02297200       0.64772100       0.39136700
H       -3.92802800      -0.04511300      -1.24360800
H       -4.32592300      -1.08901700       0.14161500
C       -1.84047400      -1.61189900      -0.81058800
H       -2.02853000      -1.40523300      -1.86887500
H       -0.76784100      -1.76950300      -0.66683000
H       -2.37881100      -2.53333000      -0.53525600
29
1msa1ma1tma-04
S        1.62554700      -0.16628300       0.07589900
O        1.44297400      -1.49782200       0.69136900
O        1.66734400       0.95784500       1.02856700
O        0.59865000       0.06140400      -1.00844000
C        3.19291000      -0.18781600      -0.77764800
H        3.97239500      -0.35913300      -0.03471400
H        3.17657000      -0.99264300      -1.51241000
H        3.33157000       0.77843700      -1.26285700
N       -1.10556700       2.28833200       0.66851000
H       -1.35714800       2.97436300       1.37328600
C       -1.04418600       2.92256600      -0.64979500
H       -0.38740800       3.80284300      -0.69582500
H       -0.66625900       2.18933000      -1.36700000
H       -2.04780200       3.23211400      -0.96343500
H       -0.17408100       1.94534400       0.91300700
N       -1.64684000      -0.96689800      -0.08303500
C       -2.81024900      -0.27228500      -0.67647400
H       -2.81523300       0.74642400      -0.28432400
H       -2.69359300      -0.25554000      -1.76114200
H       -3.72785300      -0.80147000      -0.40644700
C       -1.48292400      -2.35206300      -0.58094900
H       -1.41585100      -2.32702200      -1.66924200
H       -0.55193700      -2.74537100      -0.16963300
H       -2.33848300      -2.95579500      -0.26778200
C       -1.67554400      -0.91755300       1.40103800
H       -0.74513000      -1.34939900       1.77219900
H       -1.74323800       0.13149400       1.69076600
H       -2.54173900      -1.48180500       1.75702300
H       -0.76845900      -0.45018600      -0.41318800
