26
2sa3am-40
S        2.13100000      -0.75384600      -0.13667900
O        1.48475500       0.12881800      -1.18711500
O        1.40886100      -2.03261800      -0.03331000
O        1.85194400       0.06454700       1.24002400
O        3.57064100      -0.80593100      -0.24360500
H        0.87235000       0.16112300       1.36190000
H       -0.17860100       0.14424400      -1.22156800
S       -1.53741200       1.04984200       0.20808700
O       -1.16871700       0.20625400      -1.11474000
O       -2.98428200       0.94643900       0.29310000
O       -0.82169600       0.34312400       1.32466400
O       -0.99174900       2.41281000       0.02343300
H        0.62100500       2.68991600      -0.08828800
N        1.65995700       2.63121200      -0.27792000
H        2.16658000       2.52599100       0.60033200
H        1.99477100       3.43706300      -0.79776100
H        1.77626100       1.72816200      -0.81289300
N       -3.33452000      -1.87939800      -0.90317900
H       -2.95710500      -1.71528500      -1.83220000
H       -3.58228800      -0.95699700      -0.53882100
H       -4.18421900      -2.42491500      -1.00199100
N       -1.19323100      -2.34821300       0.82332200
H       -0.26611000      -2.38864000       0.35385800
H       -1.19605000      -1.42768100       1.30183300
H       -2.00289700      -2.33167300       0.12930200
H       -1.28461600      -3.10997500       1.48860100
26
2sa3am-15
S       -2.30412100       0.34740600      -0.14032400
O       -1.42686000      -0.33512900      -1.12140700
O       -2.64003700      -0.51141500       1.00546100
O       -1.83061600       1.70099900       0.20192600
O       -3.73359800       0.55076800      -0.86865100
H       -3.62439200       1.19271700      -1.58358200
H        0.22976900       0.04901100      -1.23117300
S        1.89243300      -0.85848300      -0.19619400
O        1.20265200      -0.70179500       1.14892900
O        3.28543000      -0.43939400      -0.15855600
O        1.57065200      -2.17046100      -0.76200700
O        1.19042400       0.26436300      -1.12198300
N        0.69553700       1.98329900       1.38272800
H       -0.22188200       2.03664100       0.90176300
H        0.64435200       2.44931000       2.28341700
H        0.90451900       0.96574100       1.49906300
N        2.88330800       2.60450700      -0.24598400
H        2.54305600       2.70034600      -1.19857000
H        1.48400300       2.37879800       0.78555400
H        3.32661600       1.68327200      -0.20401800
H        3.59714100       3.31009200      -0.09769000
N       -0.76227400      -2.51784700       0.88542500
H       -0.51978500      -2.71384300      -0.09005100
H        0.02063100      -1.89538000       1.21714300
H       -1.63731300      -1.95410700       0.93701000
H       -0.82007600      -3.37857100       1.42054400
26
2sa3am-27
S        1.83439200      -0.83787000      -0.18478000
O        1.16789100      -0.64585400       1.14745600
O        3.25244700      -0.51206300      -0.18963000
O        1.44501500      -2.15138900      -0.74356700
O        1.18742900       0.29059700      -1.13846100
H        0.21953200       0.11378700      -1.26679000
H       -0.00946400      -2.59811300       0.04636100
S       -2.26837200       0.37076500      -0.14514200
O       -1.84844400       1.70740700       0.31347200
O       -1.44405900      -0.14247400      -1.26089900
O       -2.46534500      -0.62201400       0.92479800
O       -3.76505900       0.55395900      -0.73190500
H       -3.74663200       1.25123200      -1.40165600
H        0.90660200       0.99894600       1.51092300
N       -0.68521900      -2.68648600       0.84722900
H       -1.43369600      -1.95291200       0.78271300
H       -0.12490100      -2.46026100       1.67041900
H       -1.08286500      -3.61889400       0.90810300
N        0.70951800       2.02205200       1.40289400
H        1.49355500       2.40364400       0.79538000
H        0.68029900       2.48663800       2.30515100
H       -0.21667300       2.08286700       0.94073900
N        2.90450900       2.57460300      -0.25568900
H        2.54723600       2.63431400      -1.20517200
H        3.34601400       1.65424800      -0.19108900
H        3.62403200       3.28166800      -0.14748300
