21
1nta1am1eda-11
H        2.08747900       1.31074500       1.05645900
H        0.65537700       0.32879000       1.46479300
H        2.73711400      -1.05808900       1.58359900
H        1.64022100      -1.62439700       0.31755100
H        4.13270700      -0.15447400      -0.10214800
H        3.58101500      -1.49225200      -0.86360600
H        0.33560000       1.68170800      -0.53601900
H        1.58445600       0.75489900      -1.27545400
C        1.46824000       0.46234600       0.74816400
C        2.30403300      -0.80430100       0.60755300
N        0.85410400       0.77220100      -0.56087300
N        3.29751800      -0.61198300      -0.45110700
H        0.11929400       0.01075300      -0.76592100
N       -1.04221400       2.84861900      -0.18710800
H       -1.61892200       2.08258000       0.17109400
H       -1.53168500       3.26708500      -0.97151200
H       -0.97639200       3.55454700       0.53879100
N       -1.86648200      -0.89998800      -0.00316500
O       -2.83141700      -1.64388400       0.07360000
O       -1.73931100       0.11002600       0.73917300
O       -0.93931900      -1.13765400      -0.85479300
21
1nta1am1eda-31
H       -2.94649600      -0.48167900      -0.67752200
H       -2.08998300      -1.96052800      -1.18089600
H       -2.39594400      -1.87317600       1.24659800
H       -0.68486000      -1.90987100       0.80696400
H       -1.56703000      -0.21165700       2.54477400
H       -0.46572200       0.29157400       1.44414500
H       -1.11316700      -0.21619300      -2.35432300
H       -1.05076500       0.83208900      -1.04703400
C       -1.99182700      -1.01356100      -0.64347100
C       -1.58811200      -1.28342300       0.80232100
N       -0.97832500      -0.18298100      -1.34648800
N       -1.42439800      -0.04250500       1.55595600
H        0.02936400      -0.50713700      -1.12465900
N       -1.10392900       2.42443400      -0.31759900
H       -0.12515600       2.47997300      -0.04051500
H       -1.63737500       2.20419600       0.52107400
H       -1.39872100       3.32563600      -0.67569200
N        2.00553700      -0.10907800       0.02189100
O        1.47972400      -0.95130200      -0.78631200
O        1.25834100       0.78037000       0.51270300
O        3.19109700      -0.18162000       0.29706900
21
1nta1am1eda-29
H       -1.19343600      -1.56802900       0.72803800
H       -0.74879400      -0.00419500       1.41478900
H       -3.20947900      -0.43818000       1.69025600
H       -2.92723500       0.95876500       0.64540400
H       -3.68208600      -1.71549300      -0.28241500
H       -4.41431100      -0.28678100      -0.59044500
H        0.19376800      -0.49799800      -0.80606600
H       -1.44209500      -0.34651500      -1.40397900
C       -1.33933400      -0.48783000       0.63511700
C       -2.81767900      -0.12898100       0.71182700
N       -0.78775500      -0.06757000      -0.66988000
N       -3.51580400      -0.72492300      -0.42775800
H       -0.65150500       0.97136400      -0.67743200
N        0.11727600       2.60664300      -0.31324800
H        0.45722300       3.13796900      -1.10847900
H        0.91980700       2.13739700       0.11583900
H       -0.25001500       3.27262000       0.35839100
N        2.31985300      -0.46938800       0.06520900
O        1.63598700      -1.07009100      -0.83561900
O        1.73250800       0.39084400       0.77517900
O        3.50091100      -0.73742600       0.21721200
