1ca_2sa_pw91.log
 OpenBabel01212108593D
Gaussian kemi/andersx/programs/g09/g09 # opt freq 6-31++g(d,p) geom=connectivity
 41 39  0  0  1  0  0  0  0  0999 V2000
   -3.7840   -1.4090    0.1611 S   0  0  0  0  0  0  0  0  0  0  0  0
   -2.5731   -1.5409   -0.7010 O   0  0  0  0  0  0  0  0  0  0  0  0
   -4.6783   -2.5342    0.3722 O   0  0  0  0  0  0  0  0  0  0  0  0
   -3.2961   -0.8885    1.6222 O   0  0  0  0  0  0  0  0  0  0  0  0
   -2.5741   -0.2089    1.4811 H   0  0  0  0  0  0  0  0  0  0  0  0
   -4.6759   -0.1933   -0.4137 O   0  0  0  0  0  0  0  0  0  0  0  0
   -4.1215    0.6401   -0.5112 H   0  0  0  0  0  0  0  0  0  0  0  0
   -1.6901    1.9034   -0.3688 S   0  0  0  0  0  0  0  0  0  0  0  0
   -3.1497    2.1145   -0.3936 O   0  0  0  0  0  0  0  0  0  0  0  0
   -0.8073    3.0915   -0.2206 O   0  0  0  0  0  0  0  0  0  0  0  0
   -1.3764    0.9205    0.8794 O   0  0  0  0  0  0  0  0  0  0  0  0
   -0.3416    0.9935    1.1916 H   0  0  0  0  0  0  0  0  0  0  0  0
   -1.3146    1.0702   -1.6532 O   0  0  0  0  0  0  0  0  0  0  0  0
   -0.5007    0.3997   -1.5007 H   0  0  0  0  0  0  0  0  0  0  0  0
    3.3572   -0.8996   -0.7314 C   0  0  1  0  0  0  0  0  0  0  0  0
    3.8703    0.4155   -0.1449 C   0  0  2  0  0  0  0  0  0  0  0  0
    4.7760   -0.8149   -0.1814 C   0  0  0  0  0  0  0  0  0  0  0  0
    3.3666    1.0354    1.1610 C   0  0  0  0  0  0  0  0  0  0  0  0
    4.0926    1.1767   -0.8994 H   0  0  0  0  0  0  0  0  0  0  0  0
    3.2918   -0.8876   -1.8245 H   0  0  0  0  0  0  0  0  0  0  0  0
    2.2699   -1.7513   -0.1064 C   0  0  0  0  0  0  0  0  0  0  0  0
    5.1460   -1.5427    1.1025 C   0  0  0  0  0  0  0  0  0  0  0  0
    5.9101   -0.7938   -1.1974 C   0  0  0  0  0  0  0  0  0  0  0  0
    4.3272   -1.5996    1.8338 H   0  0  0  0  0  0  0  0  0  0  0  0
    5.9985   -1.0475    1.5963 H   0  0  0  0  0  0  0  0  0  0  0  0
    5.4514   -2.5776    0.8769 H   0  0  0  0  0  0  0  0  0  0  0  0
    5.6205   -0.2615   -2.1167 H   0  0  0  0  0  0  0  0  0  0  0  0
    6.2024   -1.8191   -1.4798 H   0  0  0  0  0  0  0  0  0  0  0  0
    6.8007   -0.2922   -0.7832 H   0  0  0  0  0  0  0  0  0  0  0  0
    4.0155    1.8864    1.4236 H   0  0  0  0  0  0  0  0  0  0  0  0
    3.3792    0.3230    1.9955 H   0  0  0  0  0  0  0  0  0  0  0  0
    1.9487    1.5243    1.0114 C   0  0  0  0  0  0  0  0  0  0  0  0
    1.8055    2.6020    0.2616 O   0  0  0  0  0  0  0  0  0  0  0  0
    2.4100   -2.8186   -0.3540 H   0  0  0  0  0  0  0  0  0  0  0  0
    0.8745   -1.3633   -0.5498 C   0  0  0  0  0  0  0  0  0  0  0  0
    2.2639   -1.7098    0.9952 H   0  0  0  0  0  0  0  0  0  0  0  0
   -0.0688   -2.1561   -0.0755 O   0  0  0  0  0  0  0  0  0  0  0  0
   -1.0073   -1.8859   -0.3473 H   0  0  0  0  0  0  0  0  0  0  0  0
    0.8323    2.8317    0.1112 H   0  0  0  0  0  0  0  0  0  0  0  0
    0.6768   -0.3743   -1.2871 O   0  0  0  0  0  0  0  0  0  0  0  0
    0.9988    0.8997    1.5410 O   0  0  0  0  0  0  0  0  0  0  0  0
  1  3  2  0  0  0  0
  1  4  1  0  0  0  0
  2  1  2  0  0  0  0
  5  4  1  0  0  0  0
  6  1  1  0  0  0  0
  7  6  1  0  0  0  0
  8 10  2  0  0  0  0
  8 11  1  0  0  0  0
  9  8  2  0  0  0  0
 11 12  1  0  0  0  0
 13 14  1  0  0  0  0
 13  8  1  0  0  0  0
 15 20  1  6  0  0  0
 15 17  1  0  0  0  0
 15 16  1  0  0  0  0
 15 21  1  0  0  0  0
 16 19  1  6  0  0  0
 16 18  1  0  0  0  0
 17 16  1  0  0  0  0
 17 22  1  0  0  0  0
 18 30  1  0  0  0  0
 18 31  1  0  0  0  0
 21 36  1  0  0  0  0
 22 25  1  0  0  0  0
 22 24  1  0  0  0  0
 23 29  1  0  0  0  0
 23 17  1  0  0  0  0
 26 22  1  0  0  0  0
 27 23  1  0  0  0  0
 28 23  1  0  0  0  0
 32 18  1  0  0  0  0
 32 41  2  0  0  0  0
 33 32  1  0  0  0  0
 34 21  1  0  0  0  0
 35 21  1  0  0  0  0
 35 37  1  0  0  0  0
 38 37  1  0  0  0  0
 39 33  1  0  0  0  0
 40 35  2  0  0  0  0
M  END
$$$$
