1pa_wb97xd.log
 OpenBabel01212108593D
Gaussian kemi/andersx/programs/g09/g09 # opt freq 6-31++g(d,p) wb97xd
 27 27  0  0  1  0  0  0  0  0999 V2000
   -0.3303    0.6172   -0.0673 C   0  0  0  0  0  0  0  0  0  0  0  0
   -1.5571   -0.0974   -0.7510 C   0  0  1  0  0  0  0  0  0  0  0  0
   -0.6553   -1.2982   -1.0707 C   0  0  0  0  0  0  0  0  0  0  0  0
    0.5770   -0.3975   -0.8404 C   0  0  2  0  0  0  0  0  0  0  0  0
   -1.8520    0.4596   -1.6451 H   0  0  0  0  0  0  0  0  0  0  0  0
   -0.7706   -1.7604   -2.0536 H   0  0  0  0  0  0  0  0  0  0  0  0
   -0.7558   -2.0707   -0.3021 H   0  0  0  0  0  0  0  0  0  0  0  0
    0.8960    0.0658   -1.7801 H   0  0  0  0  0  0  0  0  0  0  0  0
   -0.3037    0.4239    1.4481 C   0  0  0  0  0  0  0  0  0  0  0  0
    0.6599    0.7489    1.8545 H   0  0  0  0  0  0  0  0  0  0  0  0
   -1.0818    1.0321    1.9216 H   0  0  0  0  0  0  0  0  0  0  0  0
   -0.4717   -0.6165    1.7438 H   0  0  0  0  0  0  0  0  0  0  0  0
   -0.1642    2.0873   -0.4239 C   0  0  0  0  0  0  0  0  0  0  0  0
   -0.9900    2.6757   -0.0091 H   0  0  0  0  0  0  0  0  0  0  0  0
    0.7808    2.4731   -0.0316 H   0  0  0  0  0  0  0  0  0  0  0  0
   -0.1566    2.2295   -1.5096 H   0  0  0  0  0  0  0  0  0  0  0  0
   -2.7705   -0.3312    0.0970 C   0  0  0  0  0  0  0  0  0  0  0  0
   -3.5422    0.7736    0.1850 O   0  0  0  0  0  0  0  0  0  0  0  0
   -3.0472   -1.3540    0.6826 O   0  0  0  0  0  0  0  0  0  0  0  0
   -4.2795    0.5583    0.7736 H   0  0  0  0  0  0  0  0  0  0  0  0
    1.7791   -1.0382   -0.1695 C   0  0  0  0  0  0  0  0  0  0  0  0
    1.5142   -1.4900    0.7928 H   0  0  0  0  0  0  0  0  0  0  0  0
    2.1569   -1.8637   -0.7859 H   0  0  0  0  0  0  0  0  0  0  0  0
    2.9283   -0.0926    0.0650 C   0  0  0  0  0  0  0  0  0  0  0  0
    2.9827    1.0660   -0.2791 O   0  0  0  0  0  0  0  0  0  0  0  0
    3.9427   -0.6918    0.7213 O   0  0  0  0  0  0  0  0  0  0  0  0
    4.6423   -0.0320    0.8278 H   0  0  0  0  0  0  0  0  0  0  0  0
  1  9  1  0  0  0  0
  2  5  1  6  0  0  0
  2  1  1  0  0  0  0
  2 17  1  0  0  0  0
  3  4  1  0  0  0  0
  3  2  1  0  0  0  0
  3  7  1  0  0  0  0
  4  8  1  6  0  0  0
  4 21  1  0  0  0  0
  4  1  1  0  0  0  0
  6  3  1  0  0  0  0
  9 12  1  0  0  0  0
  9 10  1  0  0  0  0
  9 11  1  0  0  0  0
 13  1  1  0  0  0  0
 13 15  1  0  0  0  0
 13 14  1  0  0  0  0
 16 13  1  0  0  0  0
 17 18  1  0  0  0  0
 17 19  2  0  0  0  0
 18 20  1  0  0  0  0
 21 24  1  0  0  0  0
 21 22  1  0  0  0  0
 23 21  1  0  0  0  0
 24 26  1  0  0  0  0
 25 24  2  0  0  0  0
 26 27  1  0  0  0  0
M  END
$$$$
