2ca_1sa_pw91.log
 OpenBabel01212108593D
Gaussian kemi/andersx/programs/g09/g09 # opt freq 6-31++g(d,p) geom=connectivity
 61 60  0  0  1  0  0  0  0  0999 V2000
   -4.2257   -1.5644    0.4938 C   0  0  1  0  0  0  0  0  0  0  0  0
   -4.9310   -0.2101    0.4832 C   0  0  2  0  0  0  0  0  0  0  0  0
   -5.7455   -1.5018    0.4235 C   0  0  0  0  0  0  0  0  0  0  0  0
   -4.8646    0.7752   -0.6830 C   0  0  0  0  0  0  0  0  0  0  0  0
   -4.9506    0.2997    1.4528 H   0  0  0  0  0  0  0  0  0  0  0  0
   -3.8156   -1.8471    1.4686 H   0  0  0  0  0  0  0  0  0  0  0  0
   -3.3694   -2.0776   -0.6499 C   0  0  0  0  0  0  0  0  0  0  0  0
   -6.4652   -1.9044   -0.8553 C   0  0  0  0  0  0  0  0  0  0  0  0
   -6.5163   -1.8799    1.6807 C   0  0  0  0  0  0  0  0  0  0  0  0
   -5.9112   -1.6563   -1.7718 H   0  0  0  0  0  0  0  0  0  0  0  0
   -7.4525   -1.4166   -0.9177 H   0  0  0  0  0  0  0  0  0  0  0  0
   -6.6367   -2.9940   -0.8666 H   0  0  0  0  0  0  0  0  0  0  0  0
   -5.9760   -1.5788    2.5915 H   0  0  0  0  0  0  0  0  0  0  0  0
   -6.6756   -2.9705    1.7303 H   0  0  0  0  0  0  0  0  0  0  0  0
   -7.5069   -1.3945    1.6987 H   0  0  0  0  0  0  0  0  0  0  0  0
   -5.6960    1.4926   -0.6091 H   0  0  0  0  0  0  0  0  0  0  0  0
   -4.9342    0.2607   -1.6513 H   0  0  0  0  0  0  0  0  0  0  0  0
   -3.5532    1.5227   -0.6611 C   0  0  0  0  0  0  0  0  0  0  0  0
   -3.5977    2.6883   -0.0292 O   0  0  0  0  0  0  0  0  0  0  0  0
   -3.5917   -3.1448   -0.8435 H   0  0  0  0  0  0  0  0  0  0  0  0
   -1.8820   -2.0126   -0.3557 C   0  0  0  0  0  0  0  0  0  0  0  0
   -3.5387   -1.5567   -1.6026 H   0  0  0  0  0  0  0  0  0  0  0  0
   -1.1250   -2.0765   -1.4386 O   0  0  0  0  0  0  0  0  0  0  0  0
   -0.1275   -2.0357   -1.1816 H   0  0  0  0  0  0  0  0  0  0  0  0
   -2.6868    3.1250    0.0029 H   0  0  0  0  0  0  0  0  0  0  0  0
   -1.4340   -1.9504    0.8068 O   0  0  0  0  0  0  0  0  0  0  0  0
   -2.5243    1.0347   -1.1719 O   0  0  0  0  0  0  0  0  0  0  0  0
    4.1918   -1.5520   -0.5079 C   0  0  1  0  0  0  0  0  0  0  0  0
    4.9130   -0.2055   -0.4652 C   0  0  2  0  0  0  0  0  0  0  0  0
    5.7124   -1.5068   -0.4443 C   0  0  0  0  0  0  0  0  0  0  0  0
    4.8654    0.7518    0.7255 C   0  0  0  0  0  0  0  0  0  0  0  0
    4.9276    0.3310   -1.4199 H   0  0  0  0  0  0  0  0  0  0  0  0
    3.7734   -1.8044   -1.4875 H   0  0  0  0  0  0  0  0  0  0  0  0
    3.3343   -2.0849    0.6266 C   0  0  0  0  0  0  0  0  0  0  0  0
    6.4325   -1.9537    0.8196 C   0  0  0  0  0  0  0  0  0  0  0  0
    6.4724   -1.8603   -1.7152 C   0  0  0  0  0  0  0  0  0  0  0  0
    5.8832   -1.7285    1.7448 H   0  0  0  0  0  0  0  0  0  0  0  0
    7.4241   -1.4765    0.8939 H   0  0  0  0  0  0  0  0  0  0  0  0
    6.5946   -3.0446    0.7971 H   0  0  0  0  0  0  0  0  0  0  0  0
    5.9307   -1.5295   -2.6148 H   0  0  0  0  0  0  0  0  0  0  0  0
    6.6198   -2.9508   -1.7941 H   0  0  0  0  0  0  0  0  0  0  0  0
    7.4680   -1.3849   -1.7258 H   0  0  0  0  0  0  0  0  0  0  0  0
    4.9624    0.2247    1.6840 H   0  0  0  0  0  0  0  0  0  0  0  0
    5.6902    1.4763    0.6404 H   0  0  0  0  0  0  0  0  0  0  0  0
    3.5643    1.5171    0.7213 C   0  0  0  0  0  0  0  0  0  0  0  0
    2.6538    1.0293    1.5475 O   0  0  0  0  0  0  0  0  0  0  0  0
    3.5575   -3.1548    0.8038 H   0  0  0  0  0  0  0  0  0  0  0  0
    1.8469   -2.0196    0.3275 C   0  0  0  0  0  0  0  0  0  0  0  0
    3.5006   -1.5783    1.5875 H   0  0  0  0  0  0  0  0  0  0  0  0
    1.0870   -2.0525    1.4098 O   0  0  0  0  0  0  0  0  0  0  0  0
    0.0889   -2.0127    1.1494 H   0  0  0  0  0  0  0  0  0  0  0  0
    1.7598    1.5116    1.4619 H   0  0  0  0  0  0  0  0  0  0  0  0
    1.4024   -1.9793   -0.8370 O   0  0  0  0  0  0  0  0  0  0  0  0
    3.3848    2.4932   -0.0407 O   0  0  0  0  0  0  0  0  0  0  0  0
    0.0239    2.9440    0.0216 S   0  0  0  0  0  0  0  0  0  0  0  0
   -0.1431    1.8791   -1.1510 O   0  0  0  0  0  0  0  0  0  0  0  0
    1.2710    3.7745   -0.4482 O   0  0  0  0  0  0  0  0  0  0  0  0
   -1.1400    1.5393   -1.1575 H   0  0  0  0  0  0  0  0  0  0  0  0
    2.1682    3.2205   -0.2460 H   0  0  0  0  0  0  0  0  0  0  0  0
    0.3430    2.2359    1.2994 O   0  0  0  0  0  0  0  0  0  0  0  0
   -1.1646    3.8331    0.0594 O   0  0  0  0  0  0  0  0  0  0  0  0
  1  6  1  1  0  0  0
  2  1  1  0  0  0  0
  2  5  1  1  0  0  0
  3  2  1  0  0  0  0
  3  1  1  0  0  0  0
  3  9  1  0  0  0  0
  4 18  1  0  0  0  0
  4 16  1  0  0  0  0
  4  2  1  0  0  0  0
  7 21  1  0  0  0  0
  7  1  1  0  0  0  0
  8  3  1  0  0  0  0
  9 15  1  0  0  0  0
  9 14  1  0  0  0  0
  9 13  1  0  0  0  0
 10  8  1  0  0  0  0
 11  8  1  0  0  0  0
 12  8  1  0  0  0  0
 17  4  1  0  0  0  0
 18 19  1  0  0  0  0
 19 25  1  0  0  0  0
 20  7  1  0  0  0  0
 21 26  2  0  0  0  0
 22  7  1  0  0  0  0
 23 24  1  0  0  0  0
 23 21  1  0  0  0  0
 27 18  2  0  0  0  0
 28 33  1  6  0  0  0
 28 29  1  0  0  0  0
 28 30  1  0  0  0  0
 28 34  1  0  0  0  0
 29 32  1  6  0  0  0
 29 30  1  0  0  0  0
 29 31  1  0  0  0  0
 30 35  1  0  0  0  0
 31 43  1  0  0  0  0
 34 47  1  0  0  0  0
 34 49  1  0  0  0  0
 35 38  1  0  0  0  0
 35 37  1  0  0  0  0
 36 30  1  0  0  0  0
 39 35  1  0  0  0  0
 40 36  1  0  0  0  0
 41 36  1  0  0  0  0
 42 36  1  0  0  0  0
 44 31  1  0  0  0  0
 45 31  1  0  0  0  0
 45 46  1  0  0  0  0
 48 34  1  0  0  0  0
 48 50  1  0  0  0  0
 51 50  1  0  0  0  0
 52 46  1  0  0  0  0
 53 48  2  0  0  0  0
 54 45  2  0  0  0  0
 55 61  2  0  0  0  0
 55 60  2  0  0  0  0
 56 55  1  0  0  0  0
 57 59  1  0  0  0  0
 57 55  1  0  0  0  0
 58 56  1  0  0  0  0
M  END
$$$$
