2pa_1sa_pw91.log
 OpenBabel01212108593D
Gaussian kemi/andersx/programs/g09/g09 # opt freq 6-31++g(d,p) geom=connectivity
 61 60  0  0  1  0  0  0  0  0999 V2000
   -3.3350   -2.2099    0.6216 C   0  0  0  0  0  0  0  0  0  0  0  0
   -2.6520   -2.5558   -0.7667 C   0  0  1  0  0  0  0  0  0  0  0  0
   -3.2264   -1.2514   -1.3671 C   0  0  0  0  0  0  0  0  0  0  0  0
   -4.2559   -1.2320   -0.2073 C   0  0  2  0  0  0  0  0  0  0  0  0
   -3.1299   -3.4551   -1.1931 H   0  0  0  0  0  0  0  0  0  0  0  0
   -3.6136   -1.2863   -2.3949 H   0  0  0  0  0  0  0  0  0  0  0  0
   -2.4870   -0.4384   -1.3058 H   0  0  0  0  0  0  0  0  0  0  0  0
   -5.1385   -1.8207   -0.5133 H   0  0  0  0  0  0  0  0  0  0  0  0
   -2.3706   -1.5307    1.6004 C   0  0  0  0  0  0  0  0  0  0  0  0
   -2.9210   -1.0541    2.4254 H   0  0  0  0  0  0  0  0  0  0  0  0
   -1.6883   -2.2792    2.0320 H   0  0  0  0  0  0  0  0  0  0  0  0
   -1.7619   -0.7497    1.1218 H   0  0  0  0  0  0  0  0  0  0  0  0
   -4.0646   -3.3641    1.3098 C   0  0  0  0  0  0  0  0  0  0  0  0
   -3.3467   -4.1125    1.6823 H   0  0  0  0  0  0  0  0  0  0  0  0
   -4.6468   -2.9994    2.1730 H   0  0  0  0  0  0  0  0  0  0  0  0
   -4.7600   -3.8711    0.6209 H   0  0  0  0  0  0  0  0  0  0  0  0
   -1.1621   -2.7621   -0.8143 C   0  0  0  0  0  0  0  0  0  0  0  0
   -0.7160   -3.7132   -0.0034 O   0  0  0  0  0  0  0  0  0  0  0  0
   -0.4233   -2.0758   -1.5504 O   0  0  0  0  0  0  0  0  0  0  0  0
    0.3149   -3.6989    0.0238 H   0  0  0  0  0  0  0  0  0  0  0  0
   -4.8223    0.0913    0.3737 C   0  0  0  0  0  0  0  0  0  0  0  0
   -5.6985    0.3876   -0.2222 H   0  0  0  0  0  0  0  0  0  0  0  0
   -5.1518   -0.0799    1.4105 H   0  0  0  0  0  0  0  0  0  0  0  0
   -3.8636    1.2576    0.3800 C   0  0  0  0  0  0  0  0  0  0  0  0
   -3.0716    1.4720    1.3174 O   0  0  0  0  0  0  0  0  0  0  0  0
   -3.9452    2.0177   -0.7101 O   0  0  0  0  0  0  0  0  0  0  0  0
   -3.2758    2.7690   -0.6772 H   0  0  0  0  0  0  0  0  0  0  0  0
    3.9510   -0.1253    0.9998 C   0  0  0  0  0  0  0  0  0  0  0  0
    4.0932    0.9942   -0.1408 C   0  0  1  0  0  0  0  0  0  0  0  0
    4.3666   -0.1215   -1.1783 C   0  0  0  0  0  0  0  0  0  0  0  0
    4.5696   -1.1478   -0.0335 C   0  0  2  0  0  0  0  0  0  0  0  0
    4.9556    1.6419    0.0729 H   0  0  0  0  0  0  0  0  0  0  0  0
    5.2231    0.0434   -1.8485 H   0  0  0  0  0  0  0  0  0  0  0  0
    3.4702   -0.3271   -1.7766 H   0  0  0  0  0  0  0  0  0  0  0  0
    5.6460   -1.2413    0.1927 H   0  0  0  0  0  0  0  0  0  0  0  0
    2.5072   -0.4006    1.4309 C   0  0  0  0  0  0  0  0  0  0  0  0
    2.4574   -1.3105    2.0490 H   0  0  0  0  0  0  0  0  0  0  0  0
    2.1251    0.4357    2.0395 H   0  0  0  0  0  0  0  0  0  0  0  0
    1.8241   -0.5255    0.5791 H   0  0  0  0  0  0  0  0  0  0  0  0
    4.8233    0.1452    2.2275 C   0  0  0  0  0  0  0  0  0  0  0  0
    4.4473    1.0118    2.7954 H   0  0  0  0  0  0  0  0  0  0  0  0
    4.8196   -0.7269    2.9030 H   0  0  0  0  0  0  0  0  0  0  0  0
    5.8686    0.3504    1.9455 H   0  0  0  0  0  0  0  0  0  0  0  0
    2.8799    1.8429   -0.3710 C   0  0  0  0  0  0  0  0  0  0  0  0
    2.8721    2.9937    0.2998 O   0  0  0  0  0  0  0  0  0  0  0  0
    1.9405    1.4560   -1.0967 O   0  0  0  0  0  0  0  0  0  0  0  0
    2.0108    3.4906    0.1451 H   0  0  0  0  0  0  0  0  0  0  0  0
    4.0546   -2.5978   -0.1702 C   0  0  0  0  0  0  0  0  0  0  0  0
    4.6188   -3.0680   -0.9965 H   0  0  0  0  0  0  0  0  0  0  0  0
    4.2791   -3.1715    0.7410 H   0  0  0  0  0  0  0  0  0  0  0  0
    2.5857   -2.8142   -0.4743 C   0  0  0  0  0  0  0  0  0  0  0  0
    1.8696   -3.5441    0.2426 O   0  0  0  0  0  0  0  0  0  0  0  0
    2.1446   -2.1958   -1.5593 O   0  0  0  0  0  0  0  0  0  0  0  0
    1.1103   -2.2349   -1.6004 H   0  0  0  0  0  0  0  0  0  0  0  0
   -0.7148    3.3948   -0.1975 S   0  0  0  0  0  0  0  0  0  0  0  0
   -0.8456    2.7115    1.2425 O   0  0  0  0  0  0  0  0  0  0  0  0
   -0.4517    2.1991   -1.2128 O   0  0  0  0  0  0  0  0  0  0  0  0
    0.5670    1.9170   -1.1695 H   0  0  0  0  0  0  0  0  0  0  0  0
   -1.7780    2.2445    1.2953 H   0  0  0  0  0  0  0  0  0  0  0  0
    0.4785    4.2706   -0.1244 O   0  0  0  0  0  0  0  0  0  0  0  0
   -2.0237    3.9750   -0.5840 O   0  0  0  0  0  0  0  0  0  0  0  0
  1 13  1  0  0  0  0
  1  9  1  0  0  0  0
  2  5  1  6  0  0  0
  2  1  1  0  0  0  0
  3  7  1  0  0  0  0
  3  2  1  0  0  0  0
  3  4  1  0  0  0  0
  4  8  1  6  0  0  0
  4 21  1  0  0  0  0
  4  1  1  0  0  0  0
  6  3  1  0  0  0  0
  9 11  1  0  0  0  0
  9 10  1  0  0  0  0
 12  9  1  0  0  0  0
 13 14  1  0  0  0  0
 13 15  1  0  0  0  0
 16 13  1  0  0  0  0
 17  2  1  0  0  0  0
 17 18  1  0  0  0  0
 18 20  1  0  0  0  0
 19 17  2  0  0  0  0
 21 24  1  0  0  0  0
 21 23  1  0  0  0  0
 22 21  1  0  0  0  0
 24 25  2  0  0  0  0
 26 27  1  0  0  0  0
 26 24  1  0  0  0  0
 28 36  1  0  0  0  0
 28 40  1  0  0  0  0
 29 32  1  1  0  0  0
 29 28  1  0  0  0  0
 30 29  1  0  0  0  0
 30 31  1  0  0  0  0
 31 35  1  1  0  0  0
 31 28  1  0  0  0  0
 33 30  1  0  0  0  0
 34 30  1  0  0  0  0
 36 38  1  0  0  0  0
 36 37  1  0  0  0  0
 39 36  1  0  0  0  0
 40 41  1  0  0  0  0
 40 42  1  0  0  0  0
 43 40  1  0  0  0  0
 44 29  1  0  0  0  0
 44 45  1  0  0  0  0
 46 44  2  0  0  0  0
 47 45  1  0  0  0  0
 48 31  1  0  0  0  0
 48 50  1  0  0  0  0
 49 48  1  0  0  0  0
 51 48  1  0  0  0  0
 51 52  2  0  0  0  0
 53 51  1  0  0  0  0
 54 53  1  0  0  0  0
 55 60  2  0  0  0  0
 55 56  1  0  0  0  0
 56 59  1  0  0  0  0
 57 58  1  0  0  0  0
 57 55  1  0  0  0  0
 61 55  2  0  0  0  0
M  END
$$$$
