48
2msa1nta1tma1eda-2
H       -2.60288700      -2.49625000       0.37464600
H       -1.51769000      -3.82560200      -0.08881600
H       -0.89295300      -3.05314300       2.11369600
H        0.41539400      -2.68142700       0.97969300
H       -1.57217000      -0.67236900       1.91229600
H        0.09650400      -0.85796200       2.41412000
H       -0.25262400      -2.24246400      -1.46454200
H       -1.91636200      -2.27745300      -1.86504300
C       -1.57372500      -2.75476500       0.11658100
C       -0.61303600      -2.43981500       1.25487200
N       -1.23766300      -2.03603400      -1.14375200
N       -0.62779100      -1.02306400       1.67351900
N        0.94557100       2.34548500      -0.73544000
C        2.37289000       2.74186400      -0.61188100
H        2.67070700       2.61648400       0.43054800
H        2.96388000       2.07735900      -1.24387600
H        2.48191800       3.77880300      -0.93809200
C        0.50201300       2.27426500      -2.15089600
H        1.14903000       1.57006500      -2.67604400
H       -0.52909700       1.91819500      -2.16204700
H        0.57354600       3.26997700      -2.59482500
C        0.04983700       3.20400600       0.07782700
H       -0.94772300       2.76527700       0.04421800
H        0.41860300       3.20881600       1.10178200
H        0.04998400       4.20937100      -0.35023400
N        2.00653400       0.50422400       2.31787300
O        3.15635800       0.84532400       2.01961800
O        1.78254500      -0.63842200       2.81208500
O        1.03248800       1.27427500       2.11985900
H        0.89899900       1.36679900      -0.37827300
S        2.04330700      -1.11419900      -1.25351100
O        2.60955200      -0.28075400      -2.31946000
O        1.38371200      -2.37423900      -1.71515700
O        1.06841900      -0.34893800      -0.39765100
H       -0.27690100      -0.43764700       0.90217800
C        3.36801300      -1.59884700      -0.16989900
H        4.09469900      -2.15709700      -0.76049400
H        3.80325000      -0.69452400       0.25829200
H        2.95697400      -2.21187400       0.63245400
S       -3.28831000       0.29876200      -0.02176700
O       -3.24227800      -0.04296500       1.42275900
O       -3.95580000      -0.71644600      -0.85649800
O       -1.90757200       0.60478000      -0.54181800
H       -1.32699400      -1.00026800      -1.01678500
C       -4.21511000       1.81533700      -0.15426400
H       -4.25889100       2.10063400      -1.20550600
H       -5.21604700       1.62669900       0.23440500
H       -3.71437000       2.57911100       0.44138900
48
2msa1nta1tma1eda-3
H       -1.07761000      -1.81565400       2.34710900
H       -1.52113700      -0.70629400       3.65567400
H       -3.51702700      -1.61514500       2.54014600
H       -3.43388500       0.15846100       2.35289600
H       -4.02221900      -1.04317800       0.31546100
H       -2.69030800      -0.04776900       0.12110800
H        0.31023800       0.16861100       2.33497100
H       -0.51232000      -0.05664800       0.95182900
C       -1.52495900      -0.84479400       2.57270900
C       -2.96648900      -0.79014900       2.08332200
N       -0.67240000       0.18831500       1.95434800
N       -3.05320500      -0.92666500       0.60516500
N        0.51421300       0.94348500      -2.34559900
C        1.80942100       0.30908100      -2.70405700
H        2.51023300       0.45937200      -1.88204500
H        1.63786400      -0.75962800      -2.84013900
H        2.17628300       0.75734700      -3.63030200
C       -0.55934700       0.58585900      -3.30722400
H       -0.64294300      -0.50164500      -3.33873200
H       -1.48980700       1.02710600      -2.94991400
H       -0.29515500       0.98105000      -4.29074300
C        0.63334800       2.41299600      -2.17084300
H       -0.33181900       2.80836300      -1.85016600
H        1.38062800       2.60078900      -1.40172200
H        0.92636800       2.85214400      -3.12753200
N       -2.30018900       2.38197400       0.09026700
O       -2.22795200       1.32928700      -0.63209400
O       -2.14353800       3.48195300      -0.42033900
O       -2.51982100       2.24059500       1.32163100
H       -1.10106800       1.12365300       1.98748700
S       -0.24222300      -2.37283200      -0.77003600
O       -0.08560700      -2.65547400      -2.19827900
O       -1.44645200      -2.98719100      -0.12442800
O       -0.26671500      -0.89391400      -0.48868200
H       -2.49566300      -1.76027200       0.26446000
C        1.18295500      -3.00300500       0.08753100
H        1.25982900      -4.07040400      -0.12058900
H        2.05705500      -2.45065100      -0.26327600
H        1.05762600      -2.81611700       1.15474100
S        2.55705300       0.48069100       1.16152700
O        3.22183700      -0.43619400       0.21999100
O        1.93359800      -0.21125500       2.33866100
O        1.58092800       1.39734100       0.51483400
H        0.24345700       0.51260900      -1.44128700
C        3.83929300       1.51424000       1.85606100
H        4.54968900       0.86994000       2.37458300
H        4.32955700       2.04278700       1.03788000
H        3.38035100       2.21911900       2.54962300
48
2msa1nta1tma1eda-4
H       -2.36369400      -2.98773600      -0.06316600
H       -0.98845500      -3.83588300      -0.80784700
H       -0.34393200      -3.37559900       1.40519500
H        0.61048100      -2.32772400       0.33107800
H       -1.75618900      -1.38499600       1.87435200
H       -0.07328900      -1.17822200       2.26842600
H       -1.61082900      -2.38054500      -2.39560200
H       -2.06236800      -1.15693400      -1.39490600
C       -1.33287800      -2.87914800      -0.41178000
C       -0.38863200      -2.52200300       0.72568200
N       -1.33687200      -1.90371600      -1.53809400
N       -0.78999500      -1.34023600       1.52406500
N        0.87156500       2.31965500      -0.81601000
C        2.25244600       2.58940400      -1.28889800
H        2.91630100       2.56331400      -0.42341600
H        2.53433600       1.80073400      -1.98894800
H        2.28266300       3.57226500      -1.76552400
C       -0.11102900       2.31480500      -1.92570600
H        0.22509600       1.59749200      -2.67335200
H       -1.07544200       2.00655200      -1.51996000
H       -0.17271500       3.32172600      -2.34684400
C        0.46704900       3.23125600       0.28392500
H       -0.53046400       2.93946700       0.61470000
H        1.18057100       3.11206600       1.10089400
H        0.46726900       4.25849700      -0.08935700
N        1.90845600      -1.18502500      -1.98472700
O        1.85015100      -2.33709300      -1.51578600
O        2.96816900      -0.57739600      -2.12108600
O        0.81319100      -0.61653100      -2.33365300
H       -0.38478700      -1.44097200      -1.76251200
S        2.18405600       0.06292300       1.66874400
O        1.26659400       0.03517000       0.47209500
O        1.53975100      -0.67281600       2.79246900
O        2.64330100       1.42255300       1.98080000
H        0.91744900       1.35681000      -0.38943400
C        3.60271500      -0.89418700       1.17424400
H        3.26773900      -1.89874000       0.91415900
H        4.03869200      -0.42053900       0.29411000
H        4.30555700      -0.91326300       2.00752100
S       -3.28510800       0.35475900       0.26079800
O       -3.51105700      -0.71724000       1.26126300
O       -3.39885100      -0.14499500      -1.14061300
O       -1.99071400       1.05830500       0.47376400
H       -0.73805500      -0.47103100       0.96784400
C       -4.58231200       1.55577300       0.47256100
H       -5.53741000       1.04983500       0.33138400
H       -4.50466800       1.96161600       1.48125300
H       -4.44752500       2.33909300      -0.27356000
