1sa_1a_2dma.log
 OpenBabel02271919093D
Gaussian opt/gaussian/g09/g09 # opt freq 6-31++g(d,p) wb97xd
 31 27  0  0  0  0  0  0  0  0999 V2000
    0.2411   -0.4560   -0.4931 S   0  0  0  0  0  0  0  0  0  0  0  0
    1.4979   -0.5438   -1.4530 O   0  0  0  0  0  0  0  0  0  0  0  0
   -0.7511   -1.4000   -1.0280 O   0  0  0  0  0  0  0  0  0  0  0  0
   -0.2557    0.9601   -0.5714 O   0  0  0  0  0  0  0  0  0  0  0  0
    0.7051   -0.7758    0.8757 O   0  0  0  0  0  0  0  0  0  0  0  0
    2.3044   -0.0979   -1.0008 H   0  0  0  0  0  0  0  0  0  0  0  0
   -2.0919   -1.6098    1.6675 N   0  0  0  0  0  0  0  0  0  0  0  0
   -2.4743   -2.0171    2.5140 H   0  0  0  0  0  0  0  0  0  0  0  0
   -2.0568   -2.3293    0.9486 H   0  0  0  0  0  0  0  0  0  0  0  0
   -2.6615   -0.2020    0.7671 H   0  0  0  0  0  0  0  0  0  0  0  0
   -1.1096   -1.3707    1.8291 H   0  0  0  0  0  0  0  0  0  0  0  0
   -3.5407    0.1547   -1.0819 C   0  0  0  0  0  0  0  0  0  0  0  0
   -4.5259   -0.2127   -0.7856 H   0  0  0  0  0  0  0  0  0  0  0  0
   -2.9511   -0.6414   -1.5386 H   0  0  0  0  0  0  0  0  0  0  0  0
   -3.6496    0.9820   -1.7858 H   0  0  0  0  0  0  0  0  0  0  0  0
   -2.8047    0.6189    0.1101 N   0  0  0  0  0  0  0  0  0  0  0  0
   -3.4308    1.7397    0.8276 C   0  0  0  0  0  0  0  0  0  0  0  0
   -1.8135    0.8731   -0.1845 H   0  0  0  0  0  0  0  0  0  0  0  0
   -4.4254    1.4498    1.1739 H   0  0  0  0  0  0  0  0  0  0  0  0
   -2.8071    2.0023    1.6829 H   0  0  0  0  0  0  0  0  0  0  0  0
   -3.5116    2.6007    0.1615 H   0  0  0  0  0  0  0  0  0  0  0  0
    3.5415    0.5517   -0.1754 N   0  0  0  0  0  0  0  0  0  0  0  0
    4.0139   -0.4905    0.7389 C   0  0  0  0  0  0  0  0  0  0  0  0
    3.0308    1.7302    0.5294 C   0  0  0  0  0  0  0  0  0  0  0  0
    4.2933    0.8279   -0.7997 H   0  0  0  0  0  0  0  0  0  0  0  0
    3.1546   -0.8610    1.3038 H   0  0  0  0  0  0  0  0  0  0  0  0
    4.4271   -1.3205    0.1609 H   0  0  0  0  0  0  0  0  0  0  0  0
    4.7793   -0.1218    1.4377 H   0  0  0  0  0  0  0  0  0  0  0  0
    2.1686    1.4263    1.1280 H   0  0  0  0  0  0  0  0  0  0  0  0
    3.7862    2.1830    1.1886 H   0  0  0  0  0  0  0  0  0  0  0  0
    2.6912    2.4704   -0.1981 H   0  0  0  0  0  0  0  0  0  0  0  0
  1  5  1  0  0  0  0
  2  6  1  0  0  0  0
  2  1  1  0  0  0  0
  3  1  2  0  0  0  0
  4  1  2  0  0  0  0
  7 11  1  0  0  0  0
  7  8  1  0  0  0  0
  9  7  1  0  0  0  0
 12 13  1  0  0  0  0
 12 16  1  0  0  0  0
 14 12  1  0  0  0  0
 15 12  1  0  0  0  0
 16 10  1  0  0  0  0
 16 17  1  0  0  0  0
 17 19  1  0  0  0  0
 17 20  1  0  0  0  0
 18 16  1  0  0  0  0
 21 17  1  0  0  0  0
 22 24  1  0  0  0  0
 22 23  1  0  0  0  0
 23 26  1  0  0  0  0
 23 28  1  0  0  0  0
 24 29  1  0  0  0  0
 24 30  1  0  0  0  0
 25 22  1  0  0  0  0
 27 23  1  0  0  0  0
 31 24  1  0  0  0  0
M  RAD  1   5   2
M  END
$$$$
