2sa_1a_3dma.log
 OpenBabel02271919093D
Gaussian opt/gaussian/g09/g09 # opt freq 6-31++g(d,p) wb97xd
 48 42  0  0  0  0  0  0  0  0999 V2000
   -2.1347   -1.0237   -1.2492 S   0  0  0  0  0  0  0  0  0  0  0  0
   -0.5553   -1.3559   -1.0581 O   0  0  0  0  0  0  0  0  0  0  0  0
   -0.9035   -1.4609    2.0746 N   0  0  0  0  0  0  0  0  0  0  0  0
    0.0585   -1.0894    1.8570 H   0  0  0  0  0  0  0  0  0  0  0  0
   -1.5438   -1.0602    1.3450 H   0  0  0  0  0  0  0  0  0  0  0  0
   -1.3046   -0.9580    3.4019 C   0  0  0  0  0  0  0  0  0  0  0  0
   -0.9223   -2.9279    1.9268 C   0  0  0  0  0  0  0  0  0  0  0  0
   -0.2103   -3.3737    2.6242 H   0  0  0  0  0  0  0  0  0  0  0  0
   -0.6503   -3.1660    0.8979 H   0  0  0  0  0  0  0  0  0  0  0  0
   -1.9280   -3.3006    2.1280 H   0  0  0  0  0  0  0  0  0  0  0  0
   -0.6514   -1.3867    4.1643 H   0  0  0  0  0  0  0  0  0  0  0  0
   -1.1918    0.1265    3.3879 H   0  0  0  0  0  0  0  0  0  0  0  0
   -2.3418   -1.2361    3.5981 H   0  0  0  0  0  0  0  0  0  0  0  0
   -2.1869    0.1570   -2.1453 O   0  0  0  0  0  0  0  0  0  0  0  0
   -2.5871   -0.6340    0.1251 O   0  0  0  0  0  0  0  0  0  0  0  0
    4.6448    0.3092    0.6253 N   0  0  0  0  0  0  0  0  0  0  0  0
    3.7188   -0.3183   -0.7356 H   0  0  0  0  0  0  0  0  0  0  0  0
    3.9675    1.0259    0.9159 H   0  0  0  0  0  0  0  0  0  0  0  0
   -3.1379    2.5913    0.1015 C   0  0  0  0  0  0  0  0  0  0  0  0
   -3.5743    1.6695    0.4865 H   0  0  0  0  0  0  0  0  0  0  0  0
   -3.7596    2.9845   -0.7049 H   0  0  0  0  0  0  0  0  0  0  0  0
   -3.0430    3.3336    0.8962 H   0  0  0  0  0  0  0  0  0  0  0  0
   -1.7993    2.2666   -0.4256 N   0  0  0  0  0  0  0  0  0  0  0  0
   -1.0736    3.4007   -1.0289 C   0  0  0  0  0  0  0  0  0  0  0  0
   -1.9000    1.4989   -1.1302 H   0  0  0  0  0  0  0  0  0  0  0  0
   -1.2068    1.8841    0.3526 H   0  0  0  0  0  0  0  0  0  0  0  0
   -0.1008    3.0339   -1.3570 H   0  0  0  0  0  0  0  0  0  0  0  0
   -1.6427    3.7883   -1.8758 H   0  0  0  0  0  0  0  0  0  0  0  0
   -0.9364    4.1801   -0.2774 H   0  0  0  0  0  0  0  0  0  0  0  0
    1.1458    1.0069    0.9750 S   0  0  0  0  0  0  0  0  0  0  0  0
    0.8580    0.7981   -0.5296 O   0  0  0  0  0  0  0  0  0  0  0  0
    1.5081   -0.3464    1.5365 O   0  0  0  0  0  0  0  0  0  0  0  0
   -0.1394    1.4770    1.5870 O   0  0  0  0  0  0  0  0  0  0  0  0
    2.2559    1.9637    1.1226 O   0  0  0  0  0  0  0  0  0  0  0  0
   -0.0687   -0.5043   -0.8544 H   0  0  0  0  0  0  0  0  0  0  0  0
   -2.7094   -2.2525   -1.7584 O   0  0  0  0  0  0  0  0  0  0  0  0
    4.6891   -0.3612    1.3869 H   0  0  0  0  0  0  0  0  0  0  0  0
    5.5581    0.7432    0.5433 H   0  0  0  0  0  0  0  0  0  0  0  0
    2.9505   -0.6331   -1.3956 N   0  0  0  0  0  0  0  0  0  0  0  0
    2.5989   -2.0341   -1.0825 C   0  0  0  0  0  0  0  0  0  0  0  0
    3.3223   -0.3937   -2.7996 C   0  0  0  0  0  0  0  0  0  0  0  0
    2.1260   -0.0211   -1.1353 H   0  0  0  0  0  0  0  0  0  0  0  0
    3.4513   -2.6811   -1.3014 H   0  0  0  0  0  0  0  0  0  0  0  0
    2.3431   -2.0755   -0.0228 H   0  0  0  0  0  0  0  0  0  0  0  0
    1.7299   -2.3312   -1.6723 H   0  0  0  0  0  0  0  0  0  0  0  0
    4.2050   -0.9839   -3.0546 H   0  0  0  0  0  0  0  0  0  0  0  0
    2.4910   -0.6771   -3.4477 H   0  0  0  0  0  0  0  0  0  0  0  0
    3.5390    0.6670   -2.9311 H   0  0  0  0  0  0  0  0  0  0  0  0
  1  2  1  0  0  0  0
  1 15  1  0  0  0  0
  2 35  1  0  0  0  0
  3  6  1  0  0  0  0
  4  3  1  0  0  0  0
  5  3  1  0  0  0  0
  6 13  1  0  0  0  0
  6 11  1  0  0  0  0
  7  3  1  0  0  0  0
  7 10  1  0  0  0  0
  7  8  1  0  0  0  0
  9  7  1  0  0  0  0
 12  6  1  0  0  0  0
 14  1  2  0  0  0  0
 16 18  1  0  0  0  0
 16 37  1  0  0  0  0
 19 20  1  0  0  0  0
 19 22  1  0  0  0  0
 21 19  1  0  0  0  0
 23 19  1  0  0  0  0
 23 26  1  0  0  0  0
 24 23  1  0  0  0  0
 24 29  1  0  0  0  0
 25 23  1  0  0  0  0
 27 24  1  0  0  0  0
 28 24  1  0  0  0  0
 30 34  2  0  0  0  0
 30 32  1  0  0  0  0
 30 33  1  0  0  0  0
 31 30  2  0  0  0  0
 36  1  2  0  0  0  0
 38 16  1  0  0  0  0
 39 42  1  0  0  0  0
 39 40  1  0  0  0  0
 39 17  1  0  0  0  0
 40 44  1  0  0  0  0
 41 39  1  0  0  0  0
 43 40  1  0  0  0  0
 45 40  1  0  0  0  0
 46 41  1  0  0  0  0
 47 41  1  0  0  0  0
 48 41  1  0  0  0  0
M  RAD  3  15   2  32   2  33   2
M  END
$$$$
