2sa_1a_1dma.log
 OpenBabel02271919093D
Gaussian opt/gaussian/g09/g09 # opt freq 6-31++g(d,p) wb97xd
 28 24  0  0  0  0  0  0  0  0999 V2000
    2.0863   -0.7732   -0.2282 S   0  0  0  0  0  0  0  0  0  0  0  0
    3.4488   -0.3665   -0.4890 O   0  0  0  0  0  0  0  0  0  0  0  0
    1.4527   -0.1091    0.9656 O   0  0  0  0  0  0  0  0  0  0  0  0
    1.8149   -2.2305   -0.1628 O   0  0  0  0  0  0  0  0  0  0  0  0
   -0.0855   -2.3649    1.7071 N   0  0  0  0  0  0  0  0  0  0  0  0
   -0.4123   -3.2741    2.0206 H   0  0  0  0  0  0  0  0  0  0  0  0
    0.4506   -1.8975    2.4364 H   0  0  0  0  0  0  0  0  0  0  0  0
   -2.1705   -0.2195   -0.2677 S   0  0  0  0  0  0  0  0  0  0  0  0
   -2.0220    1.2236   -0.5419 O   0  0  0  0  0  0  0  0  0  0  0  0
   -1.3149   -1.0622   -1.1251 O   0  0  0  0  0  0  0  0  0  0  0  0
   -2.0918   -0.5747    1.1600 O   0  0  0  0  0  0  0  0  0  0  0  0
    1.2426   -0.2084   -1.4884 O   0  0  0  0  0  0  0  0  0  0  0  0
    0.3269   -0.5781   -1.4615 H   0  0  0  0  0  0  0  0  0  0  0  0
    0.8470    1.3554    0.6116 H   0  0  0  0  0  0  0  0  0  0  0  0
    0.5760   -2.4470    0.8806 H   0  0  0  0  0  0  0  0  0  0  0  0
   -0.8909   -1.7416    1.4600 H   0  0  0  0  0  0  0  0  0  0  0  0
    0.3836    2.2583    0.3164 N   0  0  0  0  0  0  0  0  0  0  0  0
    1.2718    2.9558   -0.6382 C   0  0  0  0  0  0  0  0  0  0  0  0
    0.0268    3.0356    1.5196 C   0  0  0  0  0  0  0  0  0  0  0  0
   -0.4947    1.9545   -0.1507 H   0  0  0  0  0  0  0  0  0  0  0  0
    2.2065    3.2065   -0.1347 H   0  0  0  0  0  0  0  0  0  0  0  0
    1.4775    2.2760   -1.4650 H   0  0  0  0  0  0  0  0  0  0  0  0
    0.7817    3.8623   -0.9972 H   0  0  0  0  0  0  0  0  0  0  0  0
    0.9354    3.2762    2.0737 H   0  0  0  0  0  0  0  0  0  0  0  0
   -0.4841    3.9532    1.2238 H   0  0  0  0  0  0  0  0  0  0  0  0
   -0.6371    2.4294    2.1362 H   0  0  0  0  0  0  0  0  0  0  0  0
   -3.7006   -0.5879   -0.6410 O   0  0  0  0  0  0  0  0  0  0  0  0
   -3.8509   -0.3667   -1.5706 H   0  0  0  0  0  0  0  0  0  0  0  0
  1  4  2  0  0  0  0
  1  3  1  0  0  0  0
  2  1  2  0  0  0  0
  5  6  1  0  0  0  0
  5  7  1  0  0  0  0
  8 11  1  0  0  0  0
  9  8  2  0  0  0  0
 10  8  2  0  0  0  0
 12 13  1  0  0  0  0
 12  1  1  0  0  0  0
 15  5  1  0  0  0  0
 16  5  1  0  0  0  0
 17 14  1  0  0  0  0
 17 19  1  0  0  0  0
 18 21  1  0  0  0  0
 18 17  1  0  0  0  0
 19 24  1  0  0  0  0
 19 26  1  0  0  0  0
 20 17  1  0  0  0  0
 22 18  1  0  0  0  0
 23 18  1  0  0  0  0
 25 19  1  0  0  0  0
 27  8  1  0  0  0  0
 28 27  1  0  0  0  0
M  RAD  2   3   2  11   2
M  END
$$$$
