2sa_3a_1dma.log
 OpenBabel02271919093D
Gaussian opt/gaussian/g09/g09 # opt freq 6-31++g(d,p) wb97xd
 36 30  0  0  0  0  0  0  0  0999 V2000
   -2.6138    0.0492   -0.8386 S   0  0  0  0  0  0  0  0  0  0  0  0
   -2.5889   -0.7394    0.4595 O   0  0  0  0  0  0  0  0  0  0  0  0
   -1.3899    0.9059    2.2994 N   0  0  0  0  0  0  0  0  0  0  0  0
   -1.5590    0.8096    3.2958 H   0  0  0  0  0  0  0  0  0  0  0  0
   -1.9235    0.1886    1.7585 H   0  0  0  0  0  0  0  0  0  0  0  0
   -3.6934    1.0257   -0.8735 O   0  0  0  0  0  0  0  0  0  0  0  0
   -1.2832    0.9618   -0.7613 O   0  0  0  0  0  0  0  0  0  0  0  0
   -2.4979    3.1405    0.9950 N   0  0  0  0  0  0  0  0  0  0  0  0
   -3.0073    3.9218    1.3942 H   0  0  0  0  0  0  0  0  0  0  0  0
   -1.7278    1.8438    1.9381 H   0  0  0  0  0  0  0  0  0  0  0  0
   -1.1906   -2.9070   -0.3120 N   0  0  0  0  0  0  0  0  0  0  0  0
   -1.5794   -3.8419   -0.3812 H   0  0  0  0  0  0  0  0  0  0  0  0
   -0.3322   -2.8627    0.2858 H   0  0  0  0  0  0  0  0  0  0  0  0
    1.3711   -0.9518    0.7316 S   0  0  0  0  0  0  0  0  0  0  0  0
    0.7669   -0.7091   -0.6154 O   0  0  0  0  0  0  0  0  0  0  0  0
    1.2062    0.2345    1.6080 O   0  0  0  0  0  0  0  0  0  0  0  0
    0.8733   -2.2102    1.3241 O   0  0  0  0  0  0  0  0  0  0  0  0
   -0.4798    0.3723   -0.7610 H   0  0  0  0  0  0  0  0  0  0  0  0
   -2.4622   -0.8653   -1.9717 O   0  0  0  0  0  0  0  0  0  0  0  0
   -1.7932    3.5167    0.3673 H   0  0  0  0  0  0  0  0  0  0  0  0
   -3.1387    2.6095    0.3987 H   0  0  0  0  0  0  0  0  0  0  0  0
   -0.3801    0.7488    2.0893 H   0  0  0  0  0  0  0  0  0  0  0  0
   -1.8778   -2.2194    0.0928 H   0  0  0  0  0  0  0  0  0  0  0  0
   -0.9797   -2.5311   -1.2401 H   0  0  0  0  0  0  0  0  0  0  0  0
    2.9116   -1.1567    0.5117 O   0  0  0  0  0  0  0  0  0  0  0  0
    3.2876   -0.2794    0.0779 H   0  0  0  0  0  0  0  0  0  0  0  0
    3.6520    1.0701   -0.5968 N   0  0  0  0  0  0  0  0  0  0  0  0
    4.9916    1.5542   -0.2649 C   0  0  0  0  0  0  0  0  0  0  0  0
    3.4171    0.9442   -2.0382 C   0  0  0  0  0  0  0  0  0  0  0  0
    2.9565    1.6967   -0.1983 H   0  0  0  0  0  0  0  0  0  0  0  0
    5.7288    0.8198   -0.6007 H   0  0  0  0  0  0  0  0  0  0  0  0
    5.0830    1.6608    0.8181 H   0  0  0  0  0  0  0  0  0  0  0  0
    5.2186    2.5177   -0.7418 H   0  0  0  0  0  0  0  0  0  0  0  0
    4.1180    0.2104   -2.4459 H   0  0  0  0  0  0  0  0  0  0  0  0
    3.5575    1.8959   -2.5681 H   0  0  0  0  0  0  0  0  0  0  0  0
    2.4019    0.5764   -2.1997 H   0  0  0  0  0  0  0  0  0  0  0  0
  1  7  1  0  0  0  0
  1  2  1  0  0  0  0
  3  4  1  0  0  0  0
  5  3  1  0  0  0  0
  6  1  2  0  0  0  0
  7 18  1  0  0  0  0
  8  9  1  0  0  0  0
 10  3  1  0  0  0  0
 11 23  1  0  0  0  0
 11 13  1  0  0  0  0
 12 11  1  0  0  0  0
 14 17  2  0  0  0  0
 14 16  1  0  0  0  0
 15 14  2  0  0  0  0
 19  1  2  0  0  0  0
 20  8  1  0  0  0  0
 21  8  1  0  0  0  0
 22  3  1  0  0  0  0
 24 11  1  0  0  0  0
 25 14  1  0  0  0  0
 26 25  1  0  0  0  0
 27 28  1  0  0  0  0
 27 30  1  0  0  0  0
 28 32  1  0  0  0  0
 29 27  1  0  0  0  0
 31 28  1  0  0  0  0
 33 28  1  0  0  0  0
 34 29  1  0  0  0  0
 35 29  1  0  0  0  0
 36 29  1  0  0  0  0
M  RAD  2   2   2  16   2
M  END
$$$$
