3sa_1a_3dma.log
 OpenBabel02271919093D
Gaussian opt/gaussian/g09/g09 # opt freq 6-31++g(d,p) wb97xd
 55 48  0  0  0  0  0  0  0  0999 V2000
   -0.0608    1.0925    1.0076 S   0  0  0  0  0  0  0  0  0  0  0  0
    1.3567    1.1103    1.5376 O   0  0  0  0  0  0  0  0  0  0  0  0
   -0.9549    1.9287    1.8427 O   0  0  0  0  0  0  0  0  0  0  0  0
   -0.0533    1.5822   -0.4116 O   0  0  0  0  0  0  0  0  0  0  0  0
   -0.5324   -0.3487    1.0227 O   0  0  0  0  0  0  0  0  0  0  0  0
    2.9281    2.5209   -0.1801 N   0  0  0  0  0  0  0  0  0  0  0  0
    2.2884    2.1824    0.5748 H   0  0  0  0  0  0  0  0  0  0  0  0
    2.9286    1.7148   -0.8494 H   0  0  0  0  0  0  0  0  0  0  0  0
    2.1027   -1.9904   -0.9963 O   0  0  0  0  0  0  0  0  0  0  0  0
    2.9740    0.2065   -1.5702 O   0  0  0  0  0  0  0  0  0  0  0  0
    3.2458   -1.0389   -0.8049 S   0  0  0  0  0  0  0  0  0  0  0  0
    4.5558   -1.6246   -0.9766 O   0  0  0  0  0  0  0  0  0  0  0  0
    3.1889   -0.6234    0.7600 O   0  0  0  0  0  0  0  0  0  0  0  0
    2.4072   -0.0439    0.9872 H   0  0  0  0  0  0  0  0  0  0  0  0
   -2.4384    2.0433    0.9707 H   0  0  0  0  0  0  0  0  0  0  0  0
    4.2939    2.6725    0.3631 C   0  0  0  0  0  0  0  0  0  0  0  0
    2.3628    3.7269   -0.8154 C   0  0  0  0  0  0  0  0  0  0  0  0
    1.3436    3.4912   -1.1218 H   0  0  0  0  0  0  0  0  0  0  0  0
    2.9728    4.0023   -1.6774 H   0  0  0  0  0  0  0  0  0  0  0  0
    2.3538    4.5431   -0.0910 H   0  0  0  0  0  0  0  0  0  0  0  0
    4.2936    3.4445    1.1340 H   0  0  0  0  0  0  0  0  0  0  0  0
    4.9753    2.9481   -0.4430 H   0  0  0  0  0  0  0  0  0  0  0  0
    4.5989    1.7165    0.7902 H   0  0  0  0  0  0  0  0  0  0  0  0
   -3.3161   -1.2449   -0.8063 S   0  0  0  0  0  0  0  0  0  0  0  0
   -4.6655   -1.7555   -0.9137 O   0  0  0  0  0  0  0  0  0  0  0  0
   -3.0993   -0.9779    0.7788 O   0  0  0  0  0  0  0  0  0  0  0  0
   -3.0826    0.0897   -1.4414 O   0  0  0  0  0  0  0  0  0  0  0  0
   -2.1490   -0.7294    0.9284 H   0  0  0  0  0  0  0  0  0  0  0  0
   -2.2278   -2.1777   -1.2093 O   0  0  0  0  0  0  0  0  0  0  0  0
   -3.2128    2.1482    0.2764 N   0  0  0  0  0  0  0  0  0  0  0  0
   -2.9966    3.4101   -0.4566 C   0  0  0  0  0  0  0  0  0  0  0  0
   -4.5248    2.0297    0.9445 C   0  0  0  0  0  0  0  0  0  0  0  0
   -3.1180    1.3452   -0.4017 H   0  0  0  0  0  0  0  0  0  0  0  0
   -3.0727    4.2503    0.2359 H   0  0  0  0  0  0  0  0  0  0  0  0
   -1.9969    3.3737   -0.8900 H   0  0  0  0  0  0  0  0  0  0  0  0
   -3.7471    3.5026   -1.2434 H   0  0  0  0  0  0  0  0  0  0  0  0
   -4.6286    2.8213    1.6887 H   0  0  0  0  0  0  0  0  0  0  0  0
   -5.3139    2.1095    0.1953 H   0  0  0  0  0  0  0  0  0  0  0  0
   -4.5752    1.0499    1.4197 H   0  0  0  0  0  0  0  0  0  0  0  0
   -0.1177   -0.6562   -2.0861 N   0  0  0  0  0  0  0  0  0  0  0  0
   -0.1498    0.2328   -1.5430 H   0  0  0  0  0  0  0  0  0  0  0  0
   -0.1336   -0.4578   -3.0815 H   0  0  0  0  0  0  0  0  0  0  0  0
    0.7528   -1.1569   -1.8296 H   0  0  0  0  0  0  0  0  0  0  0  0
   -0.9454   -1.2410   -1.8215 H   0  0  0  0  0  0  0  0  0  0  0  0
    0.7067   -2.7171    1.2448 N   0  0  0  0  0  0  0  0  0  0  0  0
    1.2942   -2.6408    0.3882 H   0  0  0  0  0  0  0  0  0  0  0  0
    0.2909   -1.7596    1.3229 H   0  0  0  0  0  0  0  0  0  0  0  0
   -0.3925   -3.6876    1.0298 C   0  0  0  0  0  0  0  0  0  0  0  0
    1.5700   -3.0068    2.4087 C   0  0  0  0  0  0  0  0  0  0  0  0
   -1.0048   -3.7314    1.9321 H   0  0  0  0  0  0  0  0  0  0  0  0
   -1.0085   -3.3472    0.1941 H   0  0  0  0  0  0  0  0  0  0  0  0
    0.0346   -4.6698    0.8216 H   0  0  0  0  0  0  0  0  0  0  0  0
    0.9697   -2.9673    3.3188 H   0  0  0  0  0  0  0  0  0  0  0  0
    2.0058   -4.0004    2.2926 H   0  0  0  0  0  0  0  0  0  0  0  0
    2.3632   -2.2603    2.4439 H   0  0  0  0  0  0  0  0  0  0  0  0
  1  5  2  0  0  0  0
  1  2  1  0  0  0  0
  1  3  1  0  0  0  0
  4  1  2  0  0  0  0
  6 16  1  0  0  0  0
  6  7  1  0  0  0  0
  8  6  1  0  0  0  0
  9 11  2  0  0  0  0
 10 11  2  0  0  0  0
 11 13  1  0  0  0  0
 12 11  1  0  0  0  0
 13 14  1  0  0  0  0
 16 23  1  0  0  0  0
 16 21  1  0  0  0  0
 17  6  1  0  0  0  0
 17 20  1  0  0  0  0
 18 17  1  0  0  0  0
 19 17  1  0  0  0  0
 22 16  1  0  0  0  0
 24 26  1  0  0  0  0
 25 24  1  0  0  0  0
 26 28  1  0  0  0  0
 27 24  2  0  0  0  0
 29 24  2  0  0  0  0
 30 32  1  0  0  0  0
 30 15  1  0  0  0  0
 31 34  1  0  0  0  0
 31 30  1  0  0  0  0
 32 39  1  0  0  0  0
 32 37  1  0  0  0  0
 33 30  1  0  0  0  0
 35 31  1  0  0  0  0
 36 31  1  0  0  0  0
 38 32  1  0  0  0  0
 40 43  1  0  0  0  0
 40 44  1  0  0  0  0
 40 41  1  0  0  0  0
 42 40  1  0  0  0  0
 45 47  1  0  0  0  0
 45 49  1  0  0  0  0
 46 45  1  0  0  0  0
 48 45  1  0  0  0  0
 48 50  1  0  0  0  0
 49 55  1  0  0  0  0
 49 53  1  0  0  0  0
 51 48  1  0  0  0  0
 52 48  1  0  0  0  0
 54 49  1  0  0  0  0
M  RAD  4   2   2   3   2  12   2  25   2
M  END
$$$$
