67
3sa2dma2tma-20
S       -0.05803100       2.09698400       1.00354700
O        0.55825600       1.01428700       1.82883400
O       -1.41813400       2.41877700       1.44129200
O       -0.12801000       1.50636700      -0.48041900
O        0.83867500       3.26350500       0.85075100
H       -0.48663000       0.54491700      -0.43617200
H        2.10092300       0.58539300       1.52214600
S        3.21678100      -0.83166700       0.29059500
O        2.02971700      -1.71096500       0.46406100
O        3.06123000       0.34342500       1.38106500
O        4.50031300      -1.44747900       0.56497300
O        3.13737300      -0.14004400      -1.03650100
H        2.12336200       2.80952000      -0.13818000
S       -2.12724500      -1.44565600      -0.92259800
O       -3.10532800      -1.86106200       0.11028200
O       -0.87545900      -0.88515300      -0.23220500
O       -1.68476200      -2.58016400      -1.78541400
O       -2.68893300      -0.32526900      -1.76513400
H       -3.53630600       0.58024300      -0.88918600
N        2.83620500       2.53768200      -0.85662300
H        2.86018800       1.48856700      -0.89697200
C        2.38056700       3.04852700      -2.16334900
H        1.37534100       2.66455000      -2.33914700
H        2.35769600       4.13927500      -2.13933600
H        3.06253700       2.70559000      -2.94367100
C        4.17154200       3.00302500      -0.43228000
H        4.16302000       4.08954600      -0.33093200
H        4.40192300       2.53517000       0.52499200
H        4.91082900       2.69802600      -1.17458100
C        0.86808100      -0.87277900      -3.06355500
N        0.91784600      -2.00958300      -2.12163600
C        1.89522000      -3.05091600      -2.48657800
H        1.14707000      -1.67072300      -1.16919900
H        0.59511200      -1.24655200      -4.05201500
H        0.10569300      -0.17464900      -2.71759300
H        1.84564400      -0.39140100      -3.07999200
H        1.63397800      -3.46746500      -3.46096000
H        2.89135800      -2.60657500      -2.51621000
H        1.87136800      -3.83286200      -1.72807200
H       -0.05966000      -2.39529600      -2.03602600
N       -4.27120500       1.20807400      -0.40156400
C       -3.91421000       2.61260700      -0.70755900
C       -5.55794900       0.80237900      -1.00663800
C       -4.24207200       0.93798300       1.05727600
H       -5.70468000      -0.26144700      -0.81678400
H       -6.37149100       1.38667900      -0.56863300
H       -5.50923200       0.96983700      -2.08312800
H       -2.95465300       2.83303900      -0.23669700
H       -3.83881400       2.72458500      -1.79008000
H       -4.68761700       3.27747400      -0.31333800
H       -3.26252300       1.23119400       1.43805900
H       -5.02651400       1.52610600       1.54229500
H       -4.39903200      -0.13060000       1.20356500
N       -0.25647000      -1.75466000       2.34146100
C        0.85431300      -1.60617700       3.31390700
C       -1.52312800      -1.17722000       2.86184500
C       -0.42715600      -3.16745300       1.91653900
H       -2.29261400      -1.32002800       2.10109500
H       -1.78749100      -1.69559900       3.78676800
H       -1.35605100      -0.11524400       3.04380900
H        1.76830600      -1.97660500       2.85259800
H        0.96144000      -0.54976400       3.55436800
H        0.60801800      -2.18197000       4.20906900
H        0.50274600      -3.49079200       1.44909100
H       -0.64714900      -3.77403300       2.79806600
H       -1.25182800      -3.21886300       1.20530400
H       -0.03372800      -1.22407600       1.47919200
67
3sa2dma2tma-32
S        0.21889600      -2.17871300      -0.90119300
O        1.10118600      -2.77956400       0.13261600
O       -0.42120000      -3.16245600      -1.77467600
O       -0.77003600      -1.24509900      -0.27741100
O        1.14651000      -1.28890500      -1.83206900
H        1.28838700      -0.34585600      -1.43734500
H       -0.78277400       0.51219000      -0.17262900
S        2.57680800       1.12886400       0.21520100
O        2.20981300       0.15555600       1.30682400
O        1.47831600       1.02438400      -0.86724500
O        2.61451500       2.52439200       0.68435000
O        3.86355300       0.67020600      -0.39775200
H        3.81412900      -0.93969300      -0.28721900
S       -2.64160000       1.32759400       0.59944000
O       -3.39015300       1.24564200      -0.66665600
O       -1.06539900       1.38482800       0.19217200
O       -2.81395100       2.55027400       1.37296700
O       -2.75518300       0.05988200       1.38566400
N        3.73347800      -1.97900600      -0.08581900
H        2.71956400      -2.17248100       0.05932600
C        4.19230100      -2.76023500      -1.24820500
H        3.56995600      -2.49166900      -2.10207600
H        5.23739500      -2.52298200      -1.45512400
H        4.08326100      -3.82573300      -1.03749500
C        4.44929200      -2.24780000       1.17437400
H        5.51143300      -2.03655400       1.03870600
H        4.03560300      -1.58193600       1.93219100
H        4.30868300      -3.29213900       1.46061800
C       -0.27300500       0.79438500       3.42088900
N       -0.10880500      -0.32427600       2.47044100
C        0.17441000      -1.63055100       3.09509800
H       -0.96528400      -0.39492600       1.90032100
H        0.66219900       0.93162600       3.96532400
H       -0.50734000       1.69417600       2.85245800
H       -1.09258000       0.57324100       4.10624500
H        1.08320400      -1.54237800       3.69315400
H       -0.66340300      -1.91957800       3.73308400
H        0.33014200      -2.35777400       2.29633700
H        0.70713200      -0.09284500       1.83728000
N       -3.58419400      -1.90242200      -0.54057800
C       -3.29764500      -3.30356500      -0.14174200
C       -4.92854600      -1.46106200      -0.08931300
C       -3.40328800      -1.69800200      -2.00403400
H       -5.05418100      -0.41702000      -0.37425600
H       -5.68088100      -2.09603400      -0.56243000
H       -4.97691700      -1.54562300       0.99573900
H       -2.30829700      -3.57581800      -0.51111900
H       -3.33397200      -3.36823400       0.94639000
H       -4.05736900      -3.95404500      -0.58087700
H       -2.41297500      -2.05973000      -2.28161900
H       -4.17827800      -2.26272900      -2.52783500
H       -3.49579500      -0.63006100      -2.19991100
H       -2.89412200      -1.30000300      -0.05328400
N        0.38843200       3.48320800      -1.21890300
C       -0.73515000       3.38750800      -2.18094800
C        0.01967200       4.24554600       0.00237700
C        1.60916000       4.03889600      -1.85606500
H        0.84679000       4.15255300       0.70621200
H       -0.14569200       5.28951700      -0.27628400
H       -0.88635500       3.81691500       0.43036000
H       -0.42212600       2.76150700      -3.01779000
H       -1.59359500       2.93297100      -1.68804400
H       -0.98473000       4.39010100      -2.53636500
H        1.88282300       3.40012300      -2.69625200
H        1.40144000       5.05507800      -2.19968800
H        2.41012600       4.02280300      -1.11696000
H        0.64939800       2.50275700      -0.93516500
67
3sa2dma2tma-6
S       -2.34850900       1.36852000       0.41949800
O       -1.10932400       1.85898600       1.06776100
O       -2.96571600       0.23893000       1.15807000
O       -1.89550500       0.72882500      -0.99511000
O       -3.28015500       2.42850800       0.02829400
H       -1.16352200       0.04329300      -0.82053000
H        1.25765800      -0.20842800      -1.09523400
S       -0.04723400      -2.35681200      -0.08296600
O       -0.00516000      -0.88073400      -0.52866700
O        0.65151900      -3.16371500      -1.13046500
O        0.73508500      -2.42968000       1.19892700
O       -1.46069300      -2.74437500       0.09263400
H       -3.25272300      -1.13630400      -0.09967700
S        2.84476700       1.00748000      -0.24687200
O        2.06298500       0.29270100      -1.45595900
O        1.80421500       1.66543600       0.58635300
O        3.50971200      -0.09340300       0.50182400
O        3.75248700       1.94375500      -0.90396800
H        0.42745100       2.92470700       0.03341700
C       -0.65286400      -0.21746600       3.34616400
N        0.56179700      -0.08851100       2.51477000
C        1.79001300       0.19012500       3.28581300
H        0.68399100      -0.98765100       1.97715400
H       -0.81919000       0.71629300       3.88562500
H       -1.50476000      -0.41187900       2.69505700
H       -0.50794100      -1.04191100       4.04669600
H        1.69470100       1.16080200       3.77537800
H        1.91461500      -0.59348800       4.03598300
H        2.63599600       0.19718500       2.59956300
H        0.42106000       0.64481400       1.80119900
C        3.67804900      -3.61875000       0.33632100
N        3.23674600      -2.58421300      -0.61887000
C        4.07410700      -2.44771500      -1.82560600
H        2.23955700      -2.80309600      -0.89452400
H        4.66913800      -3.36361900       0.71624700
H        2.94899500      -3.64798600       1.14652300
H        3.70724500      -4.58567600      -0.16907300
H        5.09712000      -2.20786000      -1.53081400
H        4.05271300      -3.38232800      -2.38881600
H        3.66886500      -1.63393800      -2.42742300
H        3.22855100      -1.66035600      -0.13184500
N       -3.99464300      -1.56842400      -0.68665100
C       -3.42086600      -1.90416800      -2.01611200
C       -4.44833900      -2.77961100       0.04234600
C       -5.07216600      -0.55241300      -0.80042100
H       -4.79896000      -2.47437200       1.02860100
H       -5.25978500      -3.24694000      -0.52020500
H       -3.59596500      -3.44981000       0.14432600
H       -3.04003800      -0.98472200      -2.45962100
H       -2.60404900      -2.60756800      -1.86179100
H       -4.21132000      -2.33526700      -2.63509300
H       -4.66567700       0.33728800      -1.28100900
H       -5.88963200      -0.97347500      -1.38993800
H       -5.40734700      -0.28493100       0.20036600
N        0.37223300       3.73072300      -0.62032100
C       -0.77896900       4.58625100      -0.23259000
C        1.65806200       4.47062600      -0.52145700
C        0.18787900       3.13936500      -1.97335000
H        2.47975600       3.80180500      -0.78140600
H        1.61723500       5.32415800      -1.20208400
H        1.78106000       4.81487600       0.50556600
H       -1.70352000       4.01258600      -0.30357400
H       -0.63773400       4.91020900       0.79847000
H       -0.80324800       5.45099800      -0.89986600
H       -0.72882900       2.54872200      -1.96937000
H        0.12844400       3.95030600      -2.70265700
H        1.03775000       2.49020200      -2.18687800
