14
1am1dma-01
N       -2.51044200      -0.01577200       0.04819200
H       -2.79769700       0.73289000       0.66906700
H       -2.85074900      -0.88869500       0.43635100
H       -2.96902700       0.12665400      -0.84516700
N        0.62730300      -0.00284200      -0.46649900
C        1.15537200       1.21451800       0.11747100
C        1.20430100      -1.19661400       0.11998400
H       -0.38517200      -0.02227900      -0.34825500
H        2.22556300       1.30236400      -0.10462500
H        0.65434300       2.08234500      -0.32150000
H        1.03990700       1.26899600       1.21722900
H        2.27690300      -1.24187900      -0.10340500
H        1.09222400      -1.25284200       1.21995700
H        0.73764300      -2.08468200      -0.31623600
14
1am1dma-02
N        2.54448400      -0.22444100      -0.01604100
H        2.80639800      -0.15964100      -0.99349100
H        1.54316000      -0.42242900       0.03792200
H        3.04865600      -1.00671700       0.38627000
N       -0.56196600      -0.11107300       0.36826800
C       -1.66668700      -0.87349900      -0.19215400
C       -0.54221300       1.27648800      -0.07456000
H       -0.60219400      -0.14138300       1.38125700
H       -1.52889600      -0.96657700      -1.27461500
H       -1.67237300      -1.88116600       0.23144600
H       -2.65416700      -0.41304900      -0.01652900
H       -0.38688300       1.30495100      -1.15848700
H       -1.47544600       1.82126300       0.14700700
H        0.29751800       1.79541500       0.39391800
14
1am1dma-03
N        2.30794700      -0.00240300      -0.11037000
H        2.84157400       0.81614400       0.16020300
H        2.84154400      -0.82069400       0.16105300
H        1.42952300      -0.00211700       0.41232900
N       -0.70695800       0.00037500       0.55503100
C       -0.93486900      -1.21070500      -0.22117100
C       -0.92855600       1.21272800      -0.22104000
H       -1.30116600       0.00189200       1.37639700
H       -0.18513500      -1.26567600      -1.01739900
H       -0.81183800      -2.08798200       0.41970700
H       -1.93397900      -1.25295400      -0.68721700
H       -0.17913300       1.26342200      -1.01783000
H       -1.92776300       1.26071500      -0.68633200
H       -0.80000200       2.08930500       0.41972000
16
1am1eda-02
N       -2.39200400       0.11053400       0.18638500
H       -3.12988400       0.48259000      -0.40155700
H       -1.64295500       0.80456100       0.24255900
H       -2.77843700      -0.02227500       1.11453300
H        2.28992300       0.45556600      -0.42409500
H        1.77167600       1.02430400       1.17688300
H        1.67173600      -1.46053400       0.87439000
H        0.13777900      -0.73669300       1.37510400
H        0.34539400      -2.39231100      -0.68393200
H       -0.76983500      -1.18971100      -0.64100200
H        0.73354000       2.37457600      -0.45368900
H        0.16554100       1.07437800      -1.26284800
C        1.42196900       0.56868100       0.24362000
C        0.85104000      -0.81607500       0.54058600
N        0.38511600       1.42938800      -0.33472600
N        0.23081200      -1.38707800      -0.65474200
16
1am1eda-04
N       -2.56811300      -0.67393900       0.05003800
H       -3.33408300      -0.26047000       0.57066300
H       -2.96354200      -1.11926400      -0.77111300
H       -1.94692300       0.07680400      -0.26382900
H        1.53790300       1.49228400       0.66047900
H        0.00469100       1.18920700       1.49435900
H        1.38692000      -0.81506100       1.55954100
H       -0.06656800      -1.10003600       0.58284100
H        2.64229500      -0.68484000      -0.46021900
H        1.60759700      -1.91536400      -0.76238100
H       -0.27171700       2.27325700      -0.71132000
H        0.28496500       0.88888100      -1.40098900
C        0.58646800       0.93597800       0.60087800
C        0.88460400      -0.55981800       0.61426500
N       -0.19534100       1.26978400      -0.58900100
N        1.66231500      -0.92189700      -0.57373600
16
1am1eda-03
N       -2.67164300      -0.49297800       0.03256000
H       -3.58361500      -0.32209100      -0.37719000
H       -2.80986100      -0.70728300       1.01442500
H       -2.28379300      -1.31914500      -0.41170600
H        0.04294700      -1.04600000       0.79754500
H        1.63419800      -0.76766200       1.48725400
H        0.33938600       1.30936500       1.49517500
H        1.71442300       1.47537000       0.38981000
H       -1.04481400       0.90461700      -0.44443000
H       -0.15422700       2.24961300      -0.79238100
H        1.14044200      -0.76070100      -1.38615600
H        2.58360900      -0.85890000      -0.63923400
C        1.00414800      -0.54667500       0.61847400
C        0.75455600       0.96265800       0.53281700
N        1.61053900      -1.14000800      -0.56745800
N       -0.10045600       1.25397400      -0.61379600
11
1am1ma-01
N        2.17024000      -0.10863400       0.02400400
H        2.20024500      -0.80586700      -0.71202500
H        2.59501800      -0.51085400       0.85225500
H        2.74140900       0.67587700      -0.27073400
N       -0.89935000       0.73129700      -0.12241200
H        0.09695400       0.57451500       0.02831200
C       -1.63284300      -0.51963900       0.02120200
H       -1.53328300      -1.00926700       1.00401400
H       -2.69843000      -0.34891200      -0.16204200
H       -1.28622500      -1.22811100      -0.73773700
H       -1.21486300       1.41181400       0.55959700
22
1dma1eda-02
N        1.51608800      -0.04572300      -0.00623000
C        2.23188700      -0.83036200      -0.99555600
C        2.38913300       0.80849400       0.77906700
H        0.79476400       0.52293800      -0.45156300
H        2.89482300      -1.54404700      -0.49315100
H        1.52080800      -1.40306700      -1.59808100
H        2.85159100      -0.22022700      -1.67670000
H        3.05196900       0.19372800       1.39880800
H        3.02315800       1.47313100       0.16553000
H        1.78726900       1.43023700       1.44834200
H       -3.14729900       0.68584700       0.13809400
H       -2.56807600       0.54405000      -1.53510200
H       -2.61371300      -1.61650200      -0.26748600
H       -1.03504600      -1.21835500      -0.95719800
H       -1.35822400      -1.91273200       1.57694700
H       -0.18815100      -0.85883400       1.10501300
H       -1.47903300       2.38326600      -0.54823800
H       -1.00874600       1.49967300       0.74222900
C       -2.26223500       0.48376300      -0.48451000
C       -1.76505100      -0.92858600      -0.18543900
N       -1.18821300       1.45585600      -0.25833600
N       -1.19766000      -1.00427000       1.16044900
22
1dma1eda-01
N       -1.94925200      -0.23752000       0.43904700
C       -1.95307700       1.20545800       0.54710200
C       -2.33912900      -0.70628600      -0.87350000
H       -1.03151100      -0.60720900       0.69037900
H       -2.97837000       1.58748000       0.47084100
H       -1.55285800       1.50474100       1.51964300
H       -1.35786000       1.71510500      -0.23827400
H       -3.39282400      -0.46741000      -1.06216100
H       -1.75018100      -0.26156000      -1.70131200
H       -2.22946100      -1.79328900      -0.92573500
H        2.81540000      -1.19697500      -0.09508400
H        1.35563500      -1.82327700      -0.87711600
H        1.97165600       0.32897800      -1.85760600
H        0.42050400       0.45332200      -1.01406500
H        2.97105000       1.50600700      -0.04760300
H        1.53579900       2.27609200      -0.20954800
H        1.20303800      -1.95337700       1.56004700
H        1.28709400      -0.31098700       1.62980800
C        1.72930200      -1.03807700      -0.21062100
C        1.49634600       0.31931000      -0.86533300
N        1.00244100      -1.09883400       1.05342700
N        1.96570100       1.38777100       0.01779700
22
1dma1eda-04
N        1.78941600       0.08030200       0.46514600
C        1.51869900       1.28182900      -0.31494600
C        3.01346000      -0.59409900       0.05977000
H        1.83833300       0.31653400       1.45007800
H        1.32415900       0.99551800      -1.35388600
H        0.62069900       1.77803700       0.06229100
H        2.35279400       2.00312700      -0.30796600
H        2.89170900      -0.97753100      -0.95923000
H        3.90148800       0.06069400       0.06861400
H        3.20250200      -1.44625400       0.71812000
H       -0.97806400       0.53142600       1.26353700
H       -2.72234700       0.43503400       1.44975100
H       -1.76910700      -1.79361600       1.09688700
H       -2.80074900      -1.36781800      -0.28039100
H        0.12832800      -1.08136200      -0.27868600
H       -0.74599700      -2.19219900      -1.14120400
H       -1.47940700       1.06282100      -1.10847100
H       -3.02360500       1.32878600      -0.66706900
C       -1.91080000       0.32333800       0.72275600
C       -1.85705900      -1.12361900       0.22435700
N       -2.06857300       1.32918400      -0.32266800
N       -0.76749100      -1.26347000      -0.73733500
17
1ma1dma-01
N       -1.92984000      -0.05923900      -0.70996900
H       -2.39788000       0.71628200      -1.16549500
C       -2.02505000       0.04840200       0.74520100
H       -3.05045200       0.05804900       1.14092000
H       -1.48966600      -0.78927200       1.20085000
H       -1.52395100       0.96476500       1.06897400
H       -2.36804700      -0.91063000      -1.04340100
N        1.20920500      -0.01627400      -0.57632100
C        1.49725400       1.21558400       0.12973000
C        1.52910300      -1.19418100       0.20422700
H        0.22482800      -0.03786300      -0.84080100
H        2.57822700       1.31696300       0.28331700
H        1.16580700       2.06998300      -0.46763900
H        1.01592900       1.28217200       1.12542700
H        2.61200000      -1.25565000       0.36524700
H        1.04650500      -1.21242100       1.20136300
H        1.22330400      -2.09261500      -0.33967700
17
1ma1dma-02
N       -1.91690600      -0.38297200       0.68013900
H       -2.30839500      -1.30350600       0.84610200
C       -2.38392200       0.16299100      -0.59511500
H       -3.47417500       0.27925300      -0.67173000
H       -1.91905500       1.13908400      -0.75654700
H       -2.04388900      -0.48628300      -1.40539300
H       -2.20149700       0.20611000       1.45492400
N        1.02306500      -0.02370800      -0.30415700
C        1.43200100       1.27498000       0.19348200
C        2.03350700      -1.04330200      -0.10013700
H        0.14967200      -0.29693000       0.14670700
H        2.28567100       1.64564000      -0.38642800
H        0.61376600       1.99181100       0.07264300
H        1.73064900       1.27125000       1.25914100
H        2.92673500      -0.80540900      -0.69022800
H        2.35166800      -1.15164900       0.95411600
H        1.65622300      -2.01062100      -0.44455800
17
1ma1dma-03
N       -1.89016300      -0.80094000       0.31062900
H       -2.10933500      -1.58309800      -0.29664100
C       -2.37929600       0.45399900      -0.26088700
H       -3.45972300       0.47641700      -0.46142500
H       -2.14237400       1.27271400       0.42407600
H       -1.84814900       0.64737200      -1.19697300
H       -2.32337200      -0.98718600       1.20816200
N        1.06297600      -0.02397300      -0.35326200
C        1.25047300       1.29017500       0.23090300
C        2.16004000      -0.92498300      -0.05603200
H        0.18535700      -0.42152400      -0.01793600
H        2.12324700       1.77667500      -0.22066100
H        0.37744500       1.91549400       0.02108300
H        1.40882500       1.27334300       1.32586400
H        3.08153500      -0.55322600      -0.51965500
H        2.35718900      -1.04500700       1.02602500
H        1.95235700      -1.91273400      -0.47739500
19
1ma1eda-01
N       -1.85161100       0.37449000      -0.53426400
H       -1.09315900       0.97495500      -0.20674100
C       -2.68162700      -0.08537500       0.57430200
H       -3.16041800       0.71752000       1.15470800
H       -3.46691400      -0.74707800       0.19690500
H       -2.06685200      -0.67481700       1.26157900
H       -2.40153700       0.90793700      -1.19831500
H        2.86613000       0.27278400      -0.03285100
H        2.08829700       0.79607600       1.47615100
H        1.83381900      -1.63952200       0.97105100
H        0.30358100      -0.79044900       1.22335900
H        0.70544600      -2.35043100      -0.85155100
H       -0.18365900      -0.97941100      -1.01111100
H        1.51426100       2.34750900      -0.18843000
H        1.03180200       1.17842600      -1.22040400
C        1.89524500       0.43553200       0.45952400
C        1.15603200      -0.89795200       0.53398800
N        1.07714000       1.43349800      -0.23661000
N        0.74751300      -1.34037900      -0.79787400
19
1ma1eda-02
N       -1.79800000      -0.25792800       0.66654600
H       -2.23222000      -0.40785600       1.57021800
C       -2.78913500       0.14955100      -0.32470400
H       -3.31517500       1.08731300      -0.09088500
H       -2.29411600       0.27669200      -1.29272300
H       -3.53784700      -0.63898500      -0.44573000
H       -1.08795800       0.46895500       0.76893000
H        2.61195200       0.75629500      -0.74147900
H        2.37660100       1.18765700       0.96519500
H        2.54920800      -1.27605000       0.52395400
H        1.08469600      -0.79635300       1.39048000
H        1.06135400      -2.32113200      -0.79518500
H       -0.18459500      -1.33382600      -0.38013300
H        0.83308300       2.42422100      -0.32588700
H        0.28838000       1.07767000      -1.07394000
C        1.89969500       0.71829500       0.09729700
C        1.59723200      -0.74412400       0.41844000
N        0.65474300       1.43447000      -0.19421400
N        0.80038400      -1.35467400      -0.64647700
19
1ma1eda-06
N       -1.82650400      -0.23792600       0.74755500
H       -1.24218300      -1.02977200       0.48438100
C       -2.63500600       0.18279300      -0.39554900
H       -3.28554400      -0.60093100      -0.81050800
H       -3.26492500       1.02905700      -0.10522900
H       -1.96638800       0.52974500      -1.18923100
H       -2.41769000      -0.53683200       1.51524400
H        0.88629600      -0.74815400       1.36627100
H        2.42845400      -1.27055400       0.70248100
H        2.29230800       1.18598400       1.05855600
H        2.58818600       0.78908300      -0.64490800
H       -0.12393100       1.30315300       0.37920300
H        0.78955800       2.39964600      -0.46487200
H        0.36018900      -0.69594100      -1.21031000
H        1.43608800      -1.92926800      -1.20912200
C        1.51017800      -0.72505600       0.46271400
C        1.84186700       0.73706600       0.15814000
N        0.79831900      -1.40341400      -0.62364100
N        0.63066300       1.41362100      -0.29874100
8
2am-01
N       -1.53051900       0.00004000      -0.02945500
H       -1.57592500       0.01379700       0.98393500
H       -2.02065600      -0.82669000      -0.35276800
H       -2.02889100       0.81249300      -0.37557200
N        1.64960500       0.00001700       0.10160600
H        2.07022800       0.81872600      -0.32346500
H        0.65190900       0.00029400      -0.11387400
H        2.06973200      -0.81902500      -0.32331500
20
2dma-02
N        1.30805100       0.02146900      -0.21379000
C        2.11838000       1.19097600       0.06525200
C        2.01967600      -1.22319300       0.00250900
H        0.45847100       0.04042100       0.35022100
H        2.94133700       1.25353500      -0.65670900
H        1.51165900       2.09482500      -0.04379100
H        2.56295600       1.19383300       1.07792300
H        2.83440900      -1.31717400      -0.72534700
H        2.46237500      -1.31496000       1.01191100
H        1.33918000      -2.06648200      -0.14911200
N       -1.65928100       0.02545400       0.56109300
C       -1.87020500      -1.21202300      -0.17723000
C       -1.90539400       1.20984400      -0.25005200
H       -2.24742500       0.04121700       1.38657200
H       -1.12942700      -1.27213500      -0.98189400
H       -1.72010500      -2.06734700       0.48718100
H       -2.87314000      -1.28944400      -0.63030400
H       -1.15873800       1.24886400      -1.05043100
H       -2.90640600       1.22506900      -0.71352500
H       -1.79127300       2.10769000       0.36330300
20
2dma-03
N        1.54776600      -0.32639300      -0.33279300
C        2.43391200      -0.86042500       0.68991600
C        1.74573600       1.09682600      -0.57133800
H        1.67789800      -0.83544200      -1.20049700
H        2.19885000      -0.38958500       1.65023200
H        2.27069500      -1.93585600       0.79690800
H        3.50352700      -0.68536900       0.48281300
H        1.51738700       1.64679200       0.34795200
H        2.77555500       1.35404500      -0.87104400
H        1.05186300       1.43701800      -1.34438300
N       -1.54187700       0.08160900      -0.33435100
C       -2.44815100      -1.05011400      -0.30883600
C       -1.83283200       1.05327400       0.70190900
H       -0.57761000      -0.23810900      -0.23819200
H       -3.46385800      -0.72033500      -0.55793500
H       -2.14388600      -1.78419500      -1.06041000
H       -2.49671500      -1.55956700       0.67220900
H       -2.81091400       1.51421000       0.51928300
H       -1.85362000       0.62340400       1.72124000
H       -1.08238700       1.84910300       0.68193300
20
2dma-04
N       -1.56607700      -0.25199000      -0.51534300
C       -2.10467700       1.03196300      -0.09176300
C       -1.46823700      -1.21006600       0.57592000
H       -2.13175100      -0.63498400      -1.26436400
H       -1.41381800       1.48968600       0.62444800
H       -2.18559700       1.70101600      -0.95219700
H       -3.09275400       0.95668600       0.39326200
H       -0.74628900      -0.83963100       1.31236500
H       -2.42461400      -1.38495900       1.09702600
H       -1.09358000      -2.16443900       0.19664300
N        1.52210300       0.23176400      -0.55732400
C        1.62372600       1.26192900       0.45669900
C        2.11612000      -1.02212700      -0.13782900
H        0.54116700       0.08510900      -0.79485400
H        2.67753000       1.50419600       0.63801200
H        1.12795300       2.17302300       0.10904100
H        1.17942400       0.97574100       1.43091300
H        3.19787500      -0.89723800      -0.01008000
H        1.71316800      -1.41023600       0.81818700
H        1.95751100      -1.78257800      -0.90788400
24
2eda-01
H       -0.88319700       0.38227900       1.24158800
H       -2.56606500       0.85502000       1.44488500
H       -2.38086800      -1.56688800       1.04568400
H       -3.23626800      -0.80040300      -0.30506200
H       -0.38773600      -1.54795200      -0.33836400
H       -1.59867200      -2.17949100      -1.26696900
H       -1.36105000       1.01629100      -1.18129600
H       -2.54807300       1.94523500      -0.55560800
C       -1.83765600       0.49134600       0.71266100
C       -2.25978500      -0.88288300       0.18914400
N       -1.66391400       1.49895700      -0.33682400
N       -1.28104800      -1.34167800      -0.79407900
H        3.38264400      -0.31671000       0.26739400
H        2.66374900      -1.23811300      -1.06559800
H        2.36095800       1.16896400      -1.43911300
H        0.80659500       0.35643300      -1.21399100
H        2.06836900       2.20352700       0.63429400
H        0.47348800       2.00241500       0.24287700
H        2.01269100      -2.11147000       1.12561600
H        1.27325900      -0.68096600       1.44276600
C        2.42792300      -0.59800400      -0.20776300
C        1.72242000       0.66345600      -0.69974000
N        1.53685500      -1.32413800       0.69866100
N        1.35135900       1.51947800       0.42582500
24
2eda-02
H        3.35053000       0.08545700      -0.51414100
H        2.77745900       1.45897700       0.45817300
H        2.63464300      -0.72467100       1.63806100
H        1.08093700       0.11268900       1.51782400
H        1.25954800      -2.38730600       0.89600700
H        0.41270200      -1.44158900      -0.14411400
H        1.83413200       1.63705500      -1.69811400
H        1.25098200       0.11542500      -1.64394500
C        2.45960300       0.55159700      -0.06751700
C        1.85060900      -0.42129000       0.93576000
N        1.46135300       0.93026100      -1.07295000
N        1.34038400      -1.60695600       0.25541000
H       -3.35114500      -0.08644500      -0.51215600
H       -2.77551900      -1.46035500       0.45811300
H       -2.63321000       0.72243100       1.63977300
H       -1.07892600      -0.11356900       1.51690800
H       -1.26096300       2.38692800       0.89753800
H       -0.41305600       1.44268300      -0.14294900
H       -1.83523300      -1.63445500      -1.70041400
H       -1.25219800      -0.11286400      -1.64379500
C       -2.45919500      -0.55218400      -0.06714300
C       -1.84976500       0.42025200       0.93631300
N       -1.46188800      -0.92887800      -1.07421900
N       -1.34101900       1.60690900       0.25643900
24
2eda-03
H       -3.04313700       0.05743100      -0.93853900
H       -2.87058100      -1.49722600      -0.10913900
H       -2.81132300       0.15661300       1.57092300
H       -1.18128400      -0.47211000       1.42329900
H       -0.57280100       1.53335800       0.23282400
H       -2.10257300       2.11279400       0.39139100
H       -0.46661300      -1.35739700      -0.73151800
H       -1.44306400      -1.35547400      -2.06559800
C       -2.33417700      -0.57276300      -0.38613800
C       -1.93479600       0.14155700       0.91130100
N       -1.17593200      -0.82743800      -1.24243400
N       -1.41477400       1.49422700       0.80821700
H        2.94653600      -0.05797100      -1.00358900
H        2.98438400       1.39110800       0.00311500
H        2.84022500      -0.38999700       1.51266800
H        1.21367600       0.31616100       1.47105100
H        2.02360000      -2.11573100       0.03431100
H        1.03007000      -2.03696000       1.32193800
H        1.44808900       1.75589300      -1.76322200
H        0.51357900       0.46551100      -1.33337500
C        2.33454800       0.57660200      -0.33569300
C        1.94626000      -0.24984500       0.88597300
N        1.17307100       1.16524500      -0.98734300
N        1.33480700      -1.52908000       0.49738900
14
2ma-01
N        1.63976800      -0.62128200       0.32676200
H        2.23333900      -0.69037100       1.14578600
C        1.69447300       0.72077900      -0.25437600
H        2.68713100       1.02301500      -0.61714000
H        0.98730200       0.77136400      -1.08705000
H        1.36963300       1.44723200       0.49558700
H        1.96635500      -1.31280700      -0.33964900
N       -1.38827900      -0.62708200      -0.41083500
H       -1.97914000      -1.44942200      -0.36386000
C       -2.02089000       0.50098300       0.26220000
H       -2.23213300       0.34551000       1.33222900
H       -1.37213200       1.37868300       0.17736800
H       -2.96389200       0.74777000      -0.23544000
H       -0.49837500      -0.85299500       0.03373900
14
2ma-02
N        1.61240000       0.76718200      -0.04787400
H        0.60588000       0.92844000      -0.09403700
C        1.88883300      -0.65452200       0.10707000
H        1.50996600      -1.29800600      -0.70473400
H        2.96814900      -0.81834600       0.18771100
H        1.44252400      -1.00630500       1.04296800
H        2.02824800       1.12428800      -0.90059300
N       -1.53785700       0.70128400       0.12997000
H       -1.70340500       0.93174600       1.10364100
C       -1.82428300      -0.70816900      -0.13244200
H       -2.86086000      -1.01174300       0.07276200
H       -1.60437300      -0.92888100      -1.18053400
H       -1.15987300      -1.32777500       0.47578000
H       -2.13535300       1.30347500      -0.42539900
14
2ma-03
N       -1.46240000       0.74173400       0.17752600
H       -2.01439300       1.32678800       0.79475900
C       -2.17940200      -0.48690000      -0.16602800
H       -3.13325200      -0.32926400      -0.68916900
H       -1.53427300      -1.10674300      -0.79447400
H       -2.38180400      -1.04878300       0.74998000
H       -1.26621700       1.28630600      -0.65550600
N        1.32136600      -0.65206100       0.08733400
H        0.47353000      -0.18205700       0.40539300
C        2.38473200       0.32061300      -0.13374700
H        2.68929700       0.88906300       0.75978100
H        3.27208500      -0.18159000      -0.53183800
H        2.05781300       1.04192100      -0.88912100
H        1.59247300      -1.32563300       0.79483200
