53
3dma1msa2sa-3
S        1.93194600       1.90226800       0.45479400
O        2.14907400       0.64870500       1.25163400
O        0.52973000       2.36271100       0.61117900
O        2.96005600       2.90762200       0.62716300
O        2.06656400       1.42584300      -1.08605400
H        1.34243700       0.76093400      -1.25711000
S        0.50299700      -1.70107100      -1.08394600
O        0.75818500      -2.01653300       0.33483000
O        0.06288100      -0.28258900      -1.25163900
O        1.64961900      -2.03224800      -1.95095600
O       -0.69161100      -2.60283700      -1.59617400
H       -1.50023900      -2.37961700      -1.05717800
S       -3.35489000      -0.59159500       0.01603300
O       -2.69018700      -1.91894300       0.02707000
O       -3.38301100       0.05865800      -1.31586600
O       -2.80407300       0.32354000       1.06095500
C       -5.05236400      -0.89859100       0.46395200
H       -5.48241700      -1.55638500      -0.29145300
H       -5.06582100      -1.37767500       1.44290800
H       -5.57782900       0.05598300       0.49078400
N       -0.41024600      -0.22113300       2.28339900
C       -0.68545800      -1.55287000       2.86630700
C       -0.29980600       0.85721200       3.28996500
H        0.45279900      -0.24757000       1.71351900
H       -1.61604900      -1.49537200       3.43284400
H       -0.77648900      -2.26851700       2.05233300
H        0.13953200      -1.83129200       3.52406900
H       -1.24067700       0.91735700       3.83928000
H        0.52200900       0.62731100       3.96914400
H       -0.10052400       1.79208500       2.76835800
H       -1.19996300       0.00710300       1.64432500
N       -1.49914700       2.08388500      -1.23773400
C       -2.32431000       3.16172900      -0.65442200
C       -0.87113100       2.42392400      -2.53159000
H       -0.75029600       1.86807000      -0.55469700
H       -3.11366800       3.42961300      -1.35816900
H       -2.76047100       2.78176100       0.26939800
H       -1.68666300       4.02184800      -0.44659200
H       -1.64652800       2.73328100      -3.23406600
H       -0.15178500       3.22925000      -2.37733100
H       -0.36274200       1.53584100      -2.90428300
H       -2.08937600       1.23210100      -1.34271700
N        3.62800900      -1.17747300      -0.17937300
C        4.78707100      -0.40964800      -0.68159700
C        3.96799100      -2.37097700       0.62320200
H        3.03389600      -0.53690600       0.39986300
H        5.39335300      -1.04846200      -1.32568900
H        4.41042100       0.44843400      -1.23797200
H        5.37763100      -0.06209700       0.16728300
H        4.57916900      -3.04601500       0.02218500
H        4.51875300      -2.05952900       1.51228900
H        3.03305200      -2.85757400       0.90140900
H        3.01755600      -1.48065400      -0.96890700
53
3dma1msa2sa-4
S        0.43744500       2.08906900      -0.10446000
O       -0.26858600       0.83756400       0.26372400
O        1.32095900       1.87297400      -1.27680900
O       -0.50721100       3.21274600      -0.25747900
O        1.36297700       2.49708800       1.11739800
H        2.09808700       1.81393800       1.20917800
S        3.46319800      -0.32043800       0.17569500
O        2.22805300      -1.08600900      -0.18713000
O        3.15473800       0.59900000       1.30822100
O        4.64934700      -1.13099800       0.34073700
O        3.75703900       0.62112600      -1.10026800
H        2.98525900       1.22023500      -1.21585400
S       -2.56547600      -1.68053800      -0.11566900
O       -2.36794900      -1.39343700       1.32792600
O       -1.35885700      -2.28522200      -0.74158400
O       -3.08607600      -0.50497200      -0.86720000
C       -3.83822900      -2.92476500      -0.22238100
H       -3.48931200      -3.81446700       0.30181100
H       -4.74109400      -2.53074500       0.24435600
H       -4.01188100      -3.14086300      -1.27653500
N        0.41522200      -1.36191900       1.84856700
C        0.74507600      -0.52161900       3.01900900
C        0.71179000      -2.79760400       2.02626300
H       -0.58774400      -1.25140800       1.61481000
H        1.81656100      -0.58299400       3.20911400
H        0.48777800       0.50984300       2.78023600
H        0.17444900      -0.87189800       3.88121300
H        1.78487600      -2.92117500       2.17629400
H        0.15852200      -3.17773700       2.88664200
H        0.40241600      -3.31921800       1.12077200
H        0.96392800      -1.03216200       1.02545100
N        0.36970900      -0.73919600      -2.24529900
C       -0.55545200       0.09560500      -3.03993100
C        1.33558100      -1.51846800      -3.04944100
H        0.88991100      -0.14161600      -1.58703200
H       -1.05535200      -0.53521300      -3.77655100
H       -1.29749000       0.51418100      -2.36132900
H        0.00893500       0.89103400      -3.52584200
H        0.78585700      -2.21037900      -3.68931200
H        1.92622700      -0.83148600      -3.65696300
H        1.99128700      -2.05237700      -2.36364600
H       -0.19990700      -1.37013400      -1.64501000
N       -2.91197200       1.98779000       0.30273400
C       -2.93685900       1.82086000       1.77201700
C       -4.09676400       2.66761300      -0.25418800
H       -2.04224400       2.51019800       0.04676600
H       -3.80209500       1.21822500       2.05046300
H       -2.02452300       1.30041600       2.05773400
H       -2.98284300       2.80381900       2.24320800
H       -4.98722000       2.07615600      -0.03640900
H       -4.18879000       3.65954800       0.19085000
H       -3.97379300       2.76016000      -1.33316400
H       -2.82951900       1.04129300      -0.13069400
53
3dma1msa2sa-2
S       -0.47651700       2.22840100      -0.09066700
O        0.14457600       0.88396400      -0.15753300
O       -1.42237600       2.34865100       1.03919900
O        0.53713600       3.30032100      -0.13840600
O       -1.32424500       2.41949900      -1.43122800
H       -2.05703600       1.74916200      -1.40530300
S       -3.44869700      -0.37182300       0.05518600
O       -2.39834400      -1.29513800       0.57793500
O       -2.91261700       0.29211500      -1.18588700
O       -4.75497900      -0.96994600      -0.09539100
O       -3.61693000       0.79467100       1.13624700
H       -2.83171900       1.39920300       1.11160100
S        2.54141100      -1.63973200      -0.06165600
O        3.09554600      -1.03832000      -1.28400200
O        1.22439300      -2.30582300      -0.24946800
O        2.48870000      -0.66361700       1.07930700
C        3.66048900      -2.92830400       0.45922100
H        3.27500300      -3.37216900       1.37735100
H        3.71046100      -3.67269000      -0.33564900
H        4.64021000      -2.48126200       0.62849300
N       -0.71466600      -1.24644000      -1.92583800
C       -1.36955200      -2.51413100      -2.30960900
C        0.01903500      -0.57640400      -3.01852800
H       -1.44450000      -0.60492100      -1.55533700
H       -0.61120400      -3.21793700      -2.65513400
H       -1.88058300      -2.90665400      -1.43064800
H       -2.09615800      -2.31555200      -3.09865800
H        0.42037900       0.35564500      -2.62395000
H        0.83421200      -1.22102400      -3.34948000
H       -0.67155200      -0.37223600      -3.83814900
H       -0.04878600      -1.44390100      -1.15742800
N       -0.22842100      -0.89727100       2.11761100
C       -0.10956100      -2.27719300       2.63300400
C       -0.52663800       0.10365200       3.16489900
H        0.64090100      -0.64080700       1.62121600
H       -1.06346900      -2.56947200       3.07338200
H        0.13624500      -2.93023500       1.79670100
H        0.68161700      -2.31180500       3.38427300
H       -1.46765500      -0.16588200       3.64687200
H        0.28224700       0.10665100       3.89769900
H       -0.63242600       1.08085900       2.69367600
H       -1.00187300      -0.88791100       1.41121800
N        2.89774000       1.93970400       0.00609200
C        3.44098800       1.97037100      -1.36880900
C        3.83170700       2.42632900       1.03930200
H        2.01913800       2.51083800       0.01639400
H        4.29890900       1.30219300      -1.43393700
H        2.66769200       1.61614900      -2.04773200
H        3.71648300       2.99746700      -1.61333600
H        4.73573400       1.81604700       1.02344100
H        4.07809100       3.47044200       0.84144900
H        3.34996000       2.33981800       2.01300300
H        2.61225400       0.97155900       0.25403200
