29
1nta2eda-33
H        2.48618300       2.00978300       0.93167500
H        2.78171800       0.71852900       2.12372000
H        4.14345000       0.45280400       0.05879200
H        3.09101900      -0.93504600       0.36686300
H        3.17675500       0.15233500      -1.97743200
H        1.71931400      -0.29125200      -1.38082400
H        0.41968900       0.94465400       1.94179900
H        0.41308400       1.06314000       0.29250500
C        2.37589100       0.94090100       1.13285400
C        3.09972300       0.12360800       0.06729800
N        0.93113000       0.62005200       1.12367400
N        2.50447400       0.34844800      -1.24557100
H       -2.54450900      -0.07484200      -0.60309800
H       -3.69577900       1.04092100       0.12095700
H       -2.51503700       2.26736300      -1.52385000
H       -1.91727800       2.84745900       0.03817900
H       -0.51306500       0.80337000      -1.55163500
H       -0.08818500       2.38782800      -1.50155200
H       -2.53616200       0.93057700       2.09359700
H       -2.09480900      -0.52665700       1.50253800
C       -2.62524400       0.80722500       0.04086400
C       -1.92855100       1.98358600      -0.63788600
N       -2.02884000       0.47533400       1.34249300
N       -0.54214700       1.64679400      -0.97791600
N       -0.48398600      -1.88641000      -0.24330900
O       -0.06674900      -1.29679900      -1.27187300
O       -1.63040800      -2.33752200      -0.18987600
O        0.28698700      -1.98263700       0.76171300
H        0.75963500      -0.41675200       1.05367200
29
1nta2eda-44
H       -3.21794300      -0.03615200       0.43650200
H       -3.66017100      -1.64404800      -0.14474200
H       -2.48161500      -1.82853900       1.94720300
H       -1.54744800      -2.58406500       0.64363300
H       -0.98831600       0.15301700       1.58579100
H       -0.15289900      -1.18123700       2.06645400
H       -2.81450900      -0.81315700      -2.03044400
H       -1.80741900       0.24000200      -1.31289900
C       -2.81497100      -0.96603900       0.01251300
C       -1.89625400      -1.62236300       1.03964300
N       -2.14603600      -0.72337300      -1.27376300
N       -0.71775800      -0.79408700       1.31672500
H        2.05497300      -2.36256600      -0.62248100
H        2.47836100      -1.38718900      -2.05364500
H        4.03923500      -0.99421600      -0.18329400
H        3.16993300       0.48626600      -0.60851600
H        3.34917100      -0.33408700       1.86483700
H        1.96844300       0.35796700       1.33107500
H        0.06841200      -1.27480900      -1.57494000
H        0.30586400      -0.77463900      -0.03058700
C        2.12162500      -1.34688500      -1.02051700
C        3.05835400      -0.50982600      -0.15598700
N        0.76025900      -0.77327400      -1.00915700
N        2.57651600      -0.45278800       1.22086600
N       -0.24800000       1.94014900      -0.02294800
O       -1.30915600       2.09950400       0.60039500
O        0.85416900       1.92467600       0.56534600
O       -0.27777900       1.73221700      -1.27506000
H        0.71067900       0.22055800      -1.31536800
29
1nta2eda-22
H        1.30028700      -3.04440900      -0.37592700
H        1.00308800      -1.99096600      -1.78484100
H        3.44150800      -2.06894700      -1.03551200
H        2.75042100      -0.44363600      -1.08422200
H        3.91742300      -1.58942100       1.11501100
H        2.91590800      -0.27832000       1.14201600
H       -0.62283900      -1.60153900       0.05332200
H        0.71954100      -1.16595100       1.01265400
C        1.32057000      -2.01356700      -0.73955200
C        2.71348500      -1.40553200      -0.55945700
N        0.35807200      -1.22229900       0.05611000
N        2.99745100      -1.25317200       0.86565700
H        0.32553200      -0.21922600      -0.30894400
H       -4.22906700      -0.92257800       0.60709700
H       -2.98272500      -1.19833300       1.83622900
H       -3.20298700       1.21320200       1.18935900
H       -1.58551200       0.58450700       0.92857700
H       -3.44556100       1.40623900      -1.10241300
H       -1.79539800       1.36240400      -1.11046300
H       -2.82934000      -2.75687800      -0.04942400
H       -2.55624900      -1.47091900      -1.04061400
C       -3.14551000      -0.90137700       0.79466300
C       -2.61863400       0.51897800       0.57124000
N       -2.42513700      -1.82712200      -0.09278300
N       -2.63639700       0.85269400      -0.85059400
N        0.95267700       1.99675400       0.00201700
O        0.95661600       3.21445500      -0.09628200
O        1.55468500       1.39180700       0.91992400
O        0.30492900       1.28946000      -0.85565900
