50
2sa3eda-1
S        0.35847200      -1.74381700      -1.24480900
O        1.78644100      -1.22990700      -1.12796800
O        0.24153100      -2.93743500      -2.06845200
O       -0.10630200      -2.00964400       0.19539000
O       -0.47062300      -0.59049600      -1.77350800
H       -1.14901500       0.69539100      -1.18085500
H        0.63671300      -0.85525000       1.09566000
S       -1.20012100       2.17174100       0.43830900
O       -1.43218100       1.10517700       1.47104800
O        0.26749000       2.39391700       0.29649300
O       -1.68459800       1.51797000      -0.94511600
O       -2.00504500       3.36165200       0.60749500
N        3.51922800      -1.66191400       1.30586400
C        2.56822300      -1.99662300       2.36782500
C        1.80459200      -0.76062100       2.83312800
N        1.10449300      -0.12032300       1.69571500
H        3.02719600      -1.65154400       0.40633600
H        4.22441600      -2.38715700       1.23759000
H        3.11376300      -2.38672600       3.23257500
H        1.84330800      -2.76143400       2.05585400
H        2.48241900      -0.02475500       3.27421700
H        1.05724500      -1.03937400       3.58012100
H        1.77435600       0.41555100       1.10666600
H        0.34684300       0.52188200       1.96700300
C       -3.47799900      -1.16931600      -0.63708700
N       -2.63112000      -1.21665800       0.58015900
C       -4.69848100      -0.30805000      -0.34969900
N       -5.39403900      -0.83140200       0.82930300
H       -1.72396900      -1.73332200       0.42354300
H       -3.18381500      -1.60859600       1.34416500
H       -2.87180600      -0.77561000      -1.45243600
H       -3.75828000      -2.19783200      -0.88151500
H       -5.32275300      -0.26365700      -1.25115200
H       -4.36245700       0.71224300      -0.13983000
H       -6.05926800      -1.55493600       0.57951900
H       -5.90238300      -0.10376900       1.31658800
H       -2.32864800      -0.26301500       0.88171800
C        3.06658500       1.92358200      -1.81846700
N        1.70533200       1.34332800      -1.75587200
C        3.98285300       1.20736200      -0.83319500
N        3.45426300       1.24864300       0.52753900
H        1.16339300       1.49553900      -2.60390400
H        1.15629700       1.75379900      -0.96338900
H        3.45566900       1.80389100      -2.83224400
H        2.99544800       2.99249000      -1.59812900
H        4.98707900       1.64419700      -0.92625200
H        4.05524300       0.15489500      -1.12411600
H        3.59764100       2.15618100       0.95887000
H        3.91236300       0.52470300       1.08346700
H        1.74392800       0.28982400      -1.58310900
50
2sa3eda-14
S        0.59566700      -1.93916700      -1.26026000
O        1.79249700      -1.05344100      -1.08601700
O        0.82939500      -3.15355600      -2.00818700
O       -0.04346600      -2.13469600       0.08565700
O       -0.45488700      -1.08388500      -2.10233000
H       -0.72060000      -0.23772100      -1.61032500
H        0.66626200      -0.84515100       1.07267300
S       -1.26881200       1.91827900       0.22208900
O       -1.24097800       1.11377300      -1.06894600
O        0.11879100       2.49427900       0.40917200
O       -2.32715000       2.92171500       0.19985200
O       -1.48092800       0.92007000       1.36680700
H       -2.23127100      -0.36216300       0.85155700
N        3.57303000      -1.42055100       1.44754200
C        2.59403500      -1.83376200       2.45573500
C        1.70116900      -0.66892400       2.87163600
N        1.01696900      -0.08910300       1.69476600
H        3.13485400      -1.42485700       0.52369900
H        4.33018300      -2.09365400       1.40787100
H        3.12441900      -2.17629400       3.34925300
H        1.95635600      -2.66074000       2.11151800
H        2.28518700       0.12382500       3.34598800
H        0.94018700      -1.01169500       3.57686100
H        1.66938200       0.51715700       1.15350300
H        0.16534700       0.47299500       1.90030500
C       -3.61412600      -0.91299400      -0.63952800
C       -4.70593200      -0.01478400      -0.07025900
N       -5.32739900      -0.67634300       1.08152600
N       -2.68491600      -1.25333900       0.46630500
H       -1.89664300      -1.86001900       0.18943600
H       -3.23629500      -1.66915200       1.22069700
H       -3.04551200      -0.39358800      -1.40981400
H       -4.02129500      -1.84430800      -1.04343000
H       -5.41262300       0.23473800      -0.87114300
H       -4.24825300       0.92366600       0.25933400
H       -6.11126300      -1.25656000       0.80431900
H       -5.66760600      -0.00248800       1.75632700
C        2.89756200       2.25298100      -1.65244000
N        1.54584200       1.65357300      -1.60907300
C        3.82675200       1.52417300      -0.68926600
N        3.27916800       1.48741200       0.66359400
H        0.97422200       1.88846200      -2.41835500
H        0.98810100       2.00089200      -0.75078000
H        3.29437300       2.18190900      -2.66804400
H        2.80142400       3.31077200      -1.39095100
H        4.81519400       2.00124300      -0.75063200
H        3.94150200       0.48850100      -1.02469700
H        3.29687300       2.40296500       1.10216300
H        3.81214200       0.82457800       1.22697300
H        1.60387700       0.61512400      -1.53952000
50
2sa3eda-33
S        2.79415000       0.20387100       0.54469200
O        2.68501300       0.46493500      -0.90657500
O        2.20204400       1.28959500       1.35526400
O        2.36566200      -1.14478400       0.94218300
O        4.37948800       0.18774500       0.89045900
H        4.75203400       1.05100400       0.66609500
S       -1.90601600      -0.14907900      -0.37840400
O       -1.07178000       0.07317300      -1.63451400
O       -3.32878200      -0.26511900      -0.66955200
O       -1.34553400      -1.39500800       0.29567200
O       -1.59743400       1.01861000       0.55252600
C        0.72062200      -2.63598700      -2.76217600
N        0.94842100      -1.63807200      -1.69312300
C       -0.61604600      -3.33218800      -2.51031900
N       -0.64033600      -3.87704200      -1.15591600
H        1.82186600      -1.10503100      -1.76799300
H        0.96127500      -2.09846800      -0.77743100
H        0.72291700      -2.11095700      -3.72044700
H        1.54180400      -3.35620500      -2.73656000
H       -0.71650700      -4.13471700      -3.24706100
H       -1.42915200      -2.61584500      -2.68847800
H       -1.11950300      -4.76694100      -1.12070500
H       -1.11700500      -3.22834000      -0.52917900
H        0.14996500      -0.92904200      -1.66742800
C       -0.69473700      -1.13577300       3.65867500
N        0.02881200      -0.69540100       2.44520100
C       -2.09277300      -0.51877100       3.64666900
N       -1.98988100       0.92901600       3.48454400
H        0.98667700      -1.04943600       2.34768300
H        0.08076200       0.32764600       2.42558400
H       -0.73896600      -2.22742700       3.64880100
H       -0.13154500      -0.79950000       4.53242000
H       -2.57294200      -0.76382500       4.59860600
H       -2.68207100      -0.98830200       2.84796400
H       -2.68320800       1.41637100       4.03636000
H       -2.12136600       1.17957300       2.50429600
H       -0.50177500      -0.99013900       1.56558200
C       -1.27881300       3.55008400      -1.90480800
N       -0.81629200       2.69236900      -2.99233100
C       -0.14474000       3.76999000      -0.90462700
N        0.37078800       2.45265300      -0.47058600
H       -1.21570100       2.96862500      -3.87954500
H       -1.08035100       1.72419000      -2.80756400
H       -1.57545200       4.52948500      -2.29155100
H       -2.14296000       3.12742500      -1.37496700
H       -0.49243000       4.30591800      -0.01813400
H        0.67625700       4.32195200      -1.36852300
H       -0.41228500       1.87038900      -0.03210300
H        1.14199000       2.47933600       0.20652400
H        0.70644200       1.92361100      -1.28156900
