31
1msa1nta1ma1dma-38
S        2.22629200       0.01190100      -0.00355600
O        1.98594200       1.34903400      -0.61326000
O        2.22133600      -1.09668400      -0.99366100
O        1.30603700      -0.25699300       1.13516200
H        0.10872800      -2.00632200       0.77993000
C        3.87852900       0.08166900       0.66323200
H        4.56731100       0.28428700      -0.15697300
H        3.91370800       0.88087400       1.40357300
H        4.10029100      -0.88091500       1.12421500
N       -2.80262200      -0.41283300       0.09238700
O       -3.39769100       0.61051800       0.43492700
O       -3.05240400      -1.53315200       0.54444400
O       -1.84802700      -0.30429700      -0.77814800
H       -1.12750200       1.19254200      -0.47570700
N       -0.62172400       2.07889700      -0.23477100
C       -0.73957200       2.30907300       1.22308500
C       -1.16257400       3.16820600      -1.06889300
H        0.38451800       1.89313700      -0.45707700
H       -1.79569500       2.37304500       1.48596600
H       -0.26623400       1.46619900       1.72825400
H       -0.21881900       3.23354200       1.47946300
H       -2.22894600       3.27346900      -0.86440600
H       -0.64030900       4.09809400      -0.83746200
H       -1.01338600       2.91550900      -2.11872700
N       -0.12579900      -2.30627000      -0.17127100
H       -0.84199100      -1.60930400      -0.50187800
C       -0.62870200      -3.69014700      -0.25497900
H       -0.81810300      -3.92999700      -1.30096000
H        0.11260300      -4.37880800       0.15089100
H       -1.56200300      -3.75369500       0.30322200
H        0.74855200      -2.12084900      -0.70022600
31
1msa1nta1ma1dma-49
S       -2.19637700       0.07402900       0.04990600
O       -1.90423400       1.38833300       0.68713000
O       -2.20177600      -1.05605100       1.02361700
O       -1.31850500      -0.19567000      -1.11220300
H        1.15298400       1.11330300       0.35983800
C       -3.86953700       0.19243500      -0.55579500
H       -3.91163500       1.00536600      -1.28078500
H       -4.12861900      -0.75645800      -1.02560700
H       -4.52502700       0.39598100       0.29100100
N        2.81814900      -0.58281300       0.04261600
O        3.14741600      -1.74749000      -0.18547300
O        3.40537300       0.39907800      -0.41678000
O        1.78716400      -0.37501900       0.80148400
H        0.82553500      -1.71661300       0.79250000
N        0.70339700       2.02494600       0.09947200
C        0.82703000       2.21349600      -1.36258300
C        1.32515900       3.09224200       0.90506900
H       -0.30570700       1.90532600       0.34749700
H        1.88444000       2.19911500      -1.62880100
H        0.29812500       1.39159800      -1.84582800
H        0.37009900       3.16535900      -1.63989000
H        2.39409700       3.11955700       0.68865400
H        0.86420000       4.05057000       0.65979300
H        1.17030800       2.87047800       1.96109300
N        0.09982900      -2.47720600       0.70104600
H        0.28748100      -3.18216400       1.40957600
C        0.13496000      -3.04546400      -0.66803100
H       -0.57946800      -3.86614500      -0.73848600
H       -0.15263700      -2.24836100      -1.35335800
H        1.14658300      -3.38751000      -0.88318300
H       -0.82754300      -2.02006400       0.89139500
31
1msa1nta1ma1dma-60
S        1.96233900       0.43355300      -0.31587400
O        1.93577200      -0.77679800      -1.17923500
O        1.46713700       0.15000500       1.05727600
O        1.27929400       1.60769000      -0.92600900
H       -0.25878000       1.86864500      -0.27048000
C        3.67825000       0.89881500      -0.17523700
H        4.21944200       0.07061500       0.28248500
H        4.05770200       1.09906500      -1.17732100
H        3.74091700       1.79196800       0.44658200
N       -2.51289900      -1.03027900      -0.26491100
O       -1.84443700      -0.57712000       0.72408300
O       -3.28802300      -0.29399200      -0.87191800
O       -2.33322200      -2.22572000      -0.59560400
H       -0.69418000      -2.50127500      -0.03733700
N       -1.14094400       1.98914600       0.28150000
C       -2.12393900       2.78252500      -0.48160300
C       -0.77437900       2.55133600       1.59751900
H       -1.51143200       1.01570000       0.43677700
H       -1.71741900       3.77854700      -0.66615000
H       -2.32514100       2.27384500      -1.42340300
H       -3.05137500       2.85202700       0.08830300
H       -0.35854200       3.55116800       1.46031400
H       -1.66250200       2.59784700       2.23009000
H       -0.02393700       1.89428600       2.03892800
N        0.29200500      -2.40543000       0.29497400
H        0.87594700      -1.98455000      -0.45941800
C        0.85985700      -3.66659800       0.80421000
H        1.87693800      -3.48676800       1.15235400
H        0.24598100      -4.03384900       1.62650600
H        0.87196100      -4.40363100       0.00172700
H        0.27896500      -1.66353700       1.00501100
