29
1sa1fa1dma1ma-4
S       -0.66854100      -1.18824500       0.01518600
O        0.48554500      -1.98339300      -0.46946500
O       -1.75188600      -1.94503600       0.62901000
O       -0.16266200      -0.07103700       0.89128900
O       -1.24021000      -0.47228400      -1.28679400
H       -2.22169300      -0.22494100      -1.10779100
H        0.74987200       3.92927300      -0.41776800
H       -0.25257900       1.39312400       0.50082900
C        0.81648100       2.85980300      -0.17916600
O       -0.30214900       2.39257400       0.28782600
O        1.85746900       2.23684500      -0.35112200
N        2.60390900      -0.41644300      -0.01754000
C        2.95835100      -0.60519000       1.40454000
C        3.72252900      -0.58678600      -0.96282000
H        1.81776300      -1.08440200      -0.25228100
H        3.70660600       0.13467800       1.69439500
H        2.04656600      -0.47648100       1.98789900
H        3.35221300      -1.61285000       1.54580700
H        4.49479700       0.15480800      -0.75176700
H        4.13304300      -1.59254300      -0.86019700
H        3.34643800      -0.44640300      -1.97614000
H        2.20193800       0.53728100      -0.12861800
N       -3.71597200       0.05390900      -0.54705900
H       -4.43176300       0.30249300      -1.22161200
C       -3.63627900       1.04092700       0.53890100
H       -4.59157900       1.19711300       1.05324700
H       -2.89803100       0.69523200       1.26563600
H       -3.28779900       1.99370200       0.13414300
H       -3.94004000      -0.86430500      -0.17123900
29
1sa1fa1dma1ma-1
S       -0.87400400      -0.23607000      -0.07152100
O       -1.59657500       0.64064600      -0.99323900
O       -0.22883600      -1.41862200      -0.70053400
O        0.14628500       0.48806800       0.75797200
O       -1.92038300      -0.82726900       0.95893200
H       -2.81363600      -0.31972600       0.86854100
H        3.05358600       3.46244500      -0.33325500
H        0.80342700       1.82651200       0.38698900
C        2.53308800       2.51428200      -0.14645600
O        1.29944300       2.69904200       0.21248700
O        3.10984800       1.44030100      -0.27823500
N        2.35544200      -1.21691500      -0.05434200
C        2.47309300      -1.63624500       1.35719400
C        3.26487900      -1.91395200      -0.98176100
H        1.35051700      -1.35245600      -0.35727100
H        3.48638100      -1.43922900       1.71220300
H        1.74832000      -1.06113900       1.93337500
H        2.24914300      -2.70130100       1.43549900
H        4.29987100      -1.72518400      -0.69164300
H        3.05875600      -2.98511200      -0.95334300
H        3.09330700      -1.53521800      -1.98928100
H        2.52446400      -0.19088400      -0.10994300
N       -4.13934400       0.48593800       0.46980100
H       -4.77533600       0.77786900       1.20430500
C       -4.83418600      -0.27840800      -0.57373300
H       -5.65636500       0.27416300      -1.04327800
H       -4.10506300      -0.54524200      -1.34113100
H       -5.23052600      -1.19977500      -0.14068600
H       -3.71496800       1.31685200       0.06450900
29
1sa1fa1dma1ma-2
S       -0.90469000      -0.02034900       0.66760800
O       -0.61096700      -1.36127600       0.07916100
O       -1.98597000      -0.03942700       1.64610800
O        0.37162100       0.59769200       1.13754000
O       -1.34804200       0.92273700      -0.53689300
H       -2.36736300       0.85503100      -0.64044300
H        3.04628200       3.16659800      -1.06433100
H        1.03364400       1.85548800       0.50398500
C        2.52649000       2.29832400      -0.63960800
O        1.53637800       2.64992900       0.12270600
O        2.89219400       1.15614600      -0.89390400
N        2.04843900      -1.38221200      -0.18545600
C        2.61581200      -1.69230400       1.14290100
C        2.54879600      -2.23150500      -1.28133500
H        0.99322800      -1.44606800      -0.12376000
H        3.69832800      -1.55418100       1.11606200
H        2.16269700      -1.01078500       1.86272000
H        2.37569700      -2.72429200       1.40373000
H        3.62727000      -2.09964000      -1.38325200
H        2.31945800      -3.27613100      -1.06456300
H        2.05579100      -1.93363700      -2.20667200
H        2.25299400      -0.38426900      -0.40263200
N       -3.95210800       0.51162000      -0.55622500
H       -4.03391800       0.46572200       0.45732500
C       -4.17988500      -0.81206000      -1.14866300
H       -5.17706000      -1.21781800      -0.94151300
H       -4.04350000      -0.74726500      -2.23081200
H       -3.43023800      -1.50282200      -0.75549300
H       -4.62158300       1.19265700      -0.89782000
