40
1sa1msa2eda-02
S       -2.50256400       0.80765500       0.46450900
O       -3.65393600      -0.01265400       0.79389300
O       -2.59143400       2.25496800       0.65744200
O       -1.22189200       0.29173300       1.11056700
O       -2.24647600       0.54267600      -1.10825600
H       -1.38084700       0.99190500      -1.36714200
S        2.86604000      -0.55216900       0.20552600
O        2.99471000       0.85875900       0.67102400
O        2.01031900      -0.66297200      -1.00708000
O        2.43568500      -1.48747800       1.27307400
C        4.51076000      -1.04210100      -0.27551200
H        4.85696300      -0.35880000      -1.05093700
H        5.15130600      -0.98504200       0.60464600
H        4.46249000      -2.06354500      -0.65309400
H       -0.54329600      -4.12055100       0.15694000
H       -1.27692400      -3.36132400       1.59156300
H       -2.94391100      -3.86227000      -0.28359500
H       -2.91709600      -2.17720200       0.23364300
H       -2.32159400      -3.13973700      -2.34182300
H       -2.32849900      -1.57862200      -1.80420900
H        0.76667900      -2.15181500       0.84255100
H        0.04047800      -1.94170200      -0.63093100
C       -1.06140500      -3.23284700       0.52877800
C       -2.33468900      -2.95254600      -0.27528800
N       -0.14990100      -2.07950200       0.36814900
N       -1.97801800      -2.51506100      -1.62537800
H       -0.60071700      -1.18954400       0.69944900
H       -0.68126300       3.39564200      -0.00530500
H        0.92925100       4.12701900       0.25314300
H        0.64120300       3.52535400      -2.07630900
H        1.96387900       2.60274700      -1.35064900
H        0.18768300       1.46291800      -2.81990400
H        0.78408100       0.68449600      -1.52712000
H        1.60083200       1.75598500       0.97767500
H        0.57962600       2.63647300       1.98735100
C        0.39493300       3.20940100      -0.00559300
C        0.87305700       2.72476300      -1.36823900
N        0.65706400       2.20705300       1.06776000
N        0.20962600       1.48816500      -1.80482200
H       -0.06909700       1.43495300       1.05334800
40
1sa1msa2eda-01
S       -0.21080300      -1.66239900      -0.95479200
O       -0.91052200      -0.47334400      -1.79212300
O       -1.02628400      -2.82973700      -1.23694600
O        1.20235400      -1.71720600      -1.39494800
O       -0.26951800      -1.20250100       0.47288100
H        2.08669200      -0.51993000      -0.52333000
H       -2.01176600       1.28303200       0.95732800
S        0.25040300       2.65442500      -0.05798600
O        1.30175600       2.29565600       0.93188400
O       -1.11603800       2.68327500       0.52233200
O        0.35314000       1.82531200      -1.28889000
H       -0.41867300       0.37690900      -1.64620200
C        0.58692100       4.32998500      -0.56419700
H        0.54405200       4.96542700       0.32050200
H        1.57948800       4.35761000      -1.01373300
H       -0.17206000       4.62368400      -1.28924100
H        3.20436500      -0.31821200       2.20455400
H        1.75079700      -1.20891300       1.66872600
H        3.72247100      -2.75980800       1.87152800
H        3.12419300      -2.63958800       0.21068700
H        5.57655200      -1.42427900       1.24353100
H        5.33838700      -2.25903800      -0.14372700
H        2.15552600       0.88303700       0.44267600
H        3.57704200       0.15575500      -0.15749000
C        2.75928900      -0.89895400       1.39165100
C        3.63124100      -2.08832600       1.00830300
N        2.63680600      -0.01361800       0.20951300
N        4.91384400      -1.59921200       0.49617200
H       -4.24690000       0.79399900       0.17072500
H       -3.01938400       0.13943700      -0.94859000
H       -4.78261300      -1.57246200      -0.45311300
H       -3.18153600      -2.08075800       0.07687800
H       -5.37532000      -1.20727600       1.80114200
H       -4.34114700      -2.45928000       1.99170700
H       -2.77632400       0.12910000       1.97193400
H       -1.58049500      -0.32871100       0.87766600
C       -3.46141500       0.04337000       0.04351500
C       -3.98824700      -1.36774600       0.27536200
N       -2.39905400       0.31930500       1.04092800
N       -4.41342100      -1.50129700       1.67180900
40
1sa1msa2eda-05
S        2.75450300      -0.64382000      -0.59984000
O        2.85447500       0.42341700       0.39266300
O        2.39284900      -1.97262300      -0.03994000
O        1.93333800      -0.31636600      -1.78246400
O        4.28171700      -0.80475300      -1.13236400
H        4.29543200      -1.50313000      -1.80038500
S       -3.03269400      -0.03047700      -0.44791000
O       -3.23945900      -0.52626900       0.92686200
O       -1.98733700      -0.81866700      -1.18198800
O       -2.75525100       1.42728200      -0.53764600
C       -4.55415600      -0.30221700      -1.33813600
H       -4.78048500      -1.36818700      -1.30897900
H       -5.33858200       0.27090900      -0.84344400
H       -4.41615200       0.03711000      -2.36468300
H       -1.64861200      -2.33367200       1.78214800
H       -0.18568700      -3.31812500       2.07945700
H       -0.08461800      -1.29757300       3.41059300
H        1.19775900      -1.26799900       2.18796400
H       -1.35784500       0.16135000       1.89088100
H        0.12337800       0.86076600       2.18917100
H       -0.54397800      -3.29080600      -0.21886600
H       -0.87377000      -1.67378900      -0.30925500
C       -0.56390700      -2.38472900       1.65652200
C        0.11500300      -1.20125500       2.33306300
N       -0.28897600      -2.39515000       0.19168200
N       -0.35056000       0.05850000       1.77068700
H        0.73219600      -2.23153100       0.01072300
H        1.88376900       2.35151300      -0.85271200
H        0.54185200       3.27757400      -1.55653100
H        1.27208500       4.39501200       0.43408600
H       -0.33487800       3.72765200       0.74940300
H        2.08669300       2.25334400       1.53801100
H        1.27909000       3.27272700       2.55019600
H        0.35656200       0.78557700      -1.42916700
H        0.08301500       0.89460900       0.19240300
C        0.84831000       2.66474100      -0.70583600
C        0.71512700       3.45832700       0.58510400
N        0.02078700       1.43598900      -0.70730500
N        1.18377200       2.68189000       1.73232700
H       -0.99624900       1.61145300      -0.82405500
