21
1sa1mea1w
S       -1.50005100      -0.08564000       0.04526700
O       -1.43919500       1.37671200       0.03448300
O       -3.07189200      -0.40331000       0.24780200
H       -3.21313400      -1.34497000       0.08001000
H        1.51619800       1.18773400       0.65678400
O       -1.10979000      -0.74255400      -1.21831600
O       -0.80430100      -0.69185900       1.21484700
N        1.67616200       0.36931200       1.31284500
C        2.65366800      -0.58256900       0.71545400
H        1.99603500       0.73303300       2.20745800
H        0.72815600      -0.07942600       1.43267500
H        3.52475200      -0.00564900       0.39491900
H        2.96190400      -1.29716900       1.48261500
C        2.03199000      -1.32206000      -0.46419000
H        2.79709200      -1.99231500      -0.87510400
H        1.19463100      -1.93491000      -0.11061900
O        1.59931200      -0.41571900      -1.45176000
H        0.64023600      -0.55575400      -1.58439300
O        1.13420000       2.31104700      -0.49983300
H        0.16079900       2.24294000      -0.45085700
H        1.38039200       1.78476600      -1.27303600
28
2sa1mea1w
S        0.32986400       1.68792000      -0.11783600
O        1.33167800       1.15811700       0.82764900
O        1.10338800       2.94487400      -0.76424200
H        0.47254400       3.47886000      -1.26772600
H        1.22228000      -0.60638000       0.76385800
O        0.05430400       0.73261200      -1.21690500
O       -0.89363100       2.21906300       0.49624700
N        1.05861200      -1.63150900       0.68818500
C        1.42690400      -2.13204900      -0.66465800
H        1.65283400      -2.08576900       1.38306000
H        0.05443900      -1.76211400       0.88925800
H        1.32110600      -3.21867600      -0.64753200
H        0.72802100      -1.70375100      -1.38350600
C        2.86146200      -1.71115700      -0.95558600
H        3.20913800      -2.23145200      -1.85469200
H        2.89381100      -0.63294300      -1.15089000
O        3.67037100      -2.04540500       0.15171600
H        4.05462200      -1.21923200       0.49214200
S       -2.77471200      -0.71351000       0.15654000
O       -3.15128000       0.74773800       0.61440900
O       -2.27851200      -0.53299000      -1.33574100
H       -1.41590300      -0.03403900      -1.35727800
H       -2.34043000       1.31890500       0.67246800
O       -1.63231900      -1.15501700       0.95864900
O       -3.97545700      -1.49188600       0.12733500
O        4.04933000       0.58954600       0.85483800
H        3.19086200       1.04452700       0.86390100
H        4.71078600       1.20808100       1.17019900
10
1sa1w
S       -0.58721900      -0.06959800       0.13378400
O       -0.95094100       1.29454300      -0.63984700
O        0.33920100      -0.81935200      -0.90306200
O        0.21150900       0.35271800       1.26317000
O       -1.78948100      -0.84517300       0.27746900
H       -1.67214300       1.12124000      -1.26217500
H        1.28705800      -0.53449500      -0.75914800
H        3.43621700      -0.47937000       0.09079400
O        2.69033000       0.09067600      -0.11467600
H        2.33943400       0.41890200       0.72555000
13
1sa2w
S       -1.00065400      -0.15211800      -0.09971200
O       -0.39833200       1.16637500      -0.68171500
O       -1.09972700       0.16178400       1.48248200
O       -2.33174900      -0.29648500      -0.62482900
O       -0.03754400      -1.23156200      -0.18284000
H        0.58590300       1.29326300      -0.42811500
H       -1.90983300       0.66607200       1.64633700
H        1.81755900      -1.41877400       0.04432600
O        2.74140800      -1.12214100       0.10605000
H        3.23807400      -1.61432700      -0.55218700
H        2.28274900       1.92211300       0.73087900
O        2.06484400       1.45037900      -0.07724300
H        2.48481100       0.55873900      -0.02109900
16
1sa3w
S       -0.43474600      -0.48686600      -0.19984600
O        0.69630400      -1.33793600       0.11460100
O       -1.61801100      -1.05503800      -0.81026100
O       -0.83473000       0.22192500       1.16290200
O        0.01629300       0.70176800      -1.11758800
H       -1.77433900       0.54542700       1.08355400
H        0.88369100       1.12671600      -0.78922900
O        2.22113600       1.71698500      -0.28543700
H        2.78952900       0.97503800       0.03074200
H        2.16959200       2.35784000       0.42862200
O        3.32950300      -0.54920000       0.59122800
H        2.48758200      -1.03323000       0.53071100
H        3.98291400      -1.06542900       0.11309400
O       -3.37743700       0.71465400       0.56568700
H       -3.34847800       0.04962800      -0.13793200
H       -3.69902800       1.52858900       0.16891700
35
1sa2mea2w
S        1.70410300      -0.76010300      -0.48470700
O        1.64997100      -0.35437400       0.93749700
O        3.22162000      -1.30606700      -0.62324300
H        3.34619700      -1.63406100      -1.52461500
H        0.15334200       0.68698500       1.16743600
O        0.82151900      -1.89178000      -0.81230500
O        1.56738300       0.37282300      -1.41674600
N       -0.72436800       1.21867500       1.05413700
C       -0.49704400       2.65365100       1.32932900
H       -1.03704600       1.06523000       0.04288400
H       -1.42764500       0.74564000       1.66292700
H       -1.38472700       3.20297900       1.00612600
H       -0.36890800       2.79325200       2.40625100
C        0.73837600       3.14356200       0.57815800
H        0.86568400       4.21138000       0.78368400
H        1.62738300       2.62119500       0.95605600
O        0.60395500       2.97410700      -0.81299100
H        1.03023500       2.14006900      -1.07271800
N       -1.50722500       0.83964300      -1.60246100
C       -2.67985600      -0.00796100      -1.83200900
H       -1.64322500       1.78116600      -1.95805000
H       -0.67487700       0.47289200      -2.06277100
H       -3.47211100       0.31250200      -1.14561300
H       -3.07402500       0.07877300      -2.85520400
C       -2.36064600      -1.47548200      -1.57784900
H       -3.27234700      -2.06355300      -1.72868000
H       -1.61394800      -1.82270900      -2.30372200
O       -1.88960100      -1.70998500      -0.26425400
H       -0.92634800      -1.84732000      -0.30828100
O       -2.27231200      -0.66708900       2.31615100
H       -1.52171500      -1.13710000       2.72404600
H       -2.39868100      -1.12879400       1.46807300
O        0.24921100      -1.73603100       2.93084000
H        0.85907700      -1.39966400       2.24988200
H        0.47023600      -2.66091300       3.06050700
36
2sa2mea
S       -0.62144200      -1.65147100      -0.71003400
O       -0.35103500      -1.01231600       0.63367000
O        0.55251700      -2.37928700      -1.18918900
H        2.60608600      -0.37622100      -0.21270600
H       -2.50426500       0.80117000      -0.45504300
O       -1.89636300      -2.35946500      -0.73938700
O       -0.86779500      -0.38989200      -1.68656700
N       -2.23439100       1.02153500       0.51061600
C       -3.41453300       0.83951100       1.38687900
H       -1.48929900       0.32677400       0.73821500
H       -1.78395100       1.95402900       0.50473800
H       -3.11592200       1.01014800       2.42311800
H       -4.16267500       1.58061500       1.09897800
C       -3.94167600      -0.57867600       1.16869200
H       -3.22157100      -1.30656200       1.56294000
H       -4.88334600      -0.69419300       1.71596400
O       -4.15796100      -0.77826200      -0.20790800
H       -3.52750800      -1.44594900      -0.53023100
S        0.93542300       2.56787000      -0.18535300
O        1.04310100       1.43026800      -1.13523100
O        1.74982700       3.79089400      -0.85881100
H        1.27329600       4.08264600      -1.64829500
H       -0.12832000       0.26363200      -1.59155400
O       -0.45059900       3.04373400      -0.02532000
O        1.66544300       2.32951800       1.06504700
N        2.32357000      -0.34470200       0.77056700
C        3.14265700      -1.29465700       1.55781800
H        2.36392300       0.64563700       1.07061100
H        1.31053800      -0.60761300       0.78368200
H        4.18498300      -0.97699900       1.48613500
H        2.82195300      -1.24851600       2.60077600
C        2.95974200      -2.69256700       0.97010900
H        3.65743200      -3.37620900       1.46448200
H        1.93927800      -3.04507200       1.16325400
O        3.23143700      -2.66396800      -0.41067900
H        2.38569000      -2.71898600      -0.88314800
39
2sa2mea1w
S       -2.29432700       0.14926400       0.36935300
O       -1.31612000       0.03514600      -0.77407500
O       -2.69733800       1.53895500       0.59051900
H        0.50473200       2.25795000       0.19847600
H       -0.43904000      -2.47223100       0.75430600
O       -3.35888400      -0.84321500       0.28200700
O       -1.43864600      -0.32576200       1.65743100
N       -0.00913100      -2.34760300      -0.16760300
C       -0.45320200      -3.45190100      -1.05301800
H       -0.37125700      -1.43413900      -0.51513800
H        1.02585300      -2.27447600      -0.06241600
H       -0.02271400      -3.29519200      -2.04402500
H       -0.06597600      -4.38425600      -0.63697600
C       -1.97901100      -3.46077100      -1.08676700
H       -2.34440000      -2.56770800      -1.60769200
H       -2.31401700      -4.34509000      -1.64031500
O       -2.46361200      -3.50328600       0.23547400
H       -2.96020200      -2.68436100       0.40415700
S        3.09572000      -0.46128100       0.08448500
O        2.88373300       0.23758300       1.36933600
O        4.69466400      -0.47422200      -0.15488900
H        5.10767700      -0.96880300       0.56640900
H       -0.73715900       0.34414800       1.85628300
O        2.68216900      -1.87868800       0.13337200
O        2.59108900       0.26764000      -1.08666200
N        0.52262500       2.08209900      -0.81862700
C        0.21116900       3.32062900      -1.56685600
H        1.43466800       1.64476700      -1.03814800
H       -0.19923300       1.34227800      -0.96349800
H        0.96451700       4.06622900      -1.30408500
H        0.27395900       3.11076800      -2.63694300
C       -1.18405800       3.79478500      -1.16858800
H       -1.36832000       4.77064300      -1.63044900
H       -1.93582700       3.08974000      -1.54457000
O       -1.26486600       3.90985700       0.23242700
H       -1.83050100       3.18861700       0.55510100
O        0.58844100       1.44024900       1.96232200
H        1.46441300       0.99095800       1.87734000
H        0.62166900       2.02044900       2.72767300
50
4sa2mea
S        1.18358500       2.49127600      -0.53504100
O        0.63278300       1.08229000      -0.41221800
O        1.99974900       2.58075400      -1.75233900
H        2.43098400       0.80639500      -2.22249300
H       -0.30429200       0.48139800       0.95170400
O        0.14064100       3.49309900      -0.34174400
O        2.14437500       2.64705200       0.72246000
N       -0.73919000       0.23723000       1.85812300
C       -0.92903800       1.49934600       2.61813100
H       -1.63369300      -0.23728200       1.64987900
H       -0.07518300      -0.40766200       2.31473500
H       -1.09537600       1.26292000       3.67103200
H        0.00029500       2.06755300       2.52930800
C       -2.12293500       2.27205800       2.05880500
H       -3.05423400       1.78405000       2.35768300
H       -2.11953500       3.28575500       2.47280800
O       -2.12855400       2.29395900       0.64510800
H       -1.40624100       2.84524000       0.28034700
S        2.42113300      -1.82954100       1.61904700
O        1.48659600      -1.32365000       2.63058800
O        2.50599500      -3.42887900       1.81974800
H        2.73180800      -3.61786100       2.74174600
H        2.93529600       2.05749800       0.58877500
O        1.89849900      -1.73690700       0.22711900
O        3.78937100      -1.30850100       1.72665300
N        2.65187300      -0.17100100      -1.95936500
C        4.11207000      -0.40892700      -1.84313800
H        2.21568700      -0.31932400      -1.03484400
H        2.16154100      -0.81963300      -2.58278300
H        4.23884600      -1.38390400      -1.36738800
H        4.55172600      -0.43551100      -2.84235600
C        4.74975300       0.70447800      -1.01449300
H        5.80737700       0.46494500      -0.85845000
H        4.68703700       1.65604200      -1.54898800
O        4.08630200       0.90295400       0.21583700
H        4.13540000       0.11514400       0.79905600
S       -0.95126700      -1.48047500      -1.78563300
O       -1.33010700       0.04090300      -1.68651400
O       -0.60866800      -1.88075300      -0.30137400
H        0.38544500      -1.90769800      -0.12659400
H       -0.57332000       0.56948800      -1.28809500
O       -2.17941200      -2.15279300      -2.14972800
O        0.23952400      -1.64992000      -2.60282400
S       -4.41024600      -0.34637900       0.21278300
O       -4.55267700      -1.39960600      -0.94696900
O       -4.05719200       0.96886400      -0.58467200
H       -3.28986300       1.45771800      -0.17477000
H       -3.68865500      -1.62826200      -1.36679600
O       -5.70380100      -0.22795800       0.82384000
O       -3.26095200      -0.69096000       1.05088800
14
2sa
S       -2.07708200       0.06790000       0.12475700
O       -1.44106000       0.94189600      -1.01666300
O       -1.09857100      -0.15208700       1.17680600
O       -2.23163500      -1.37532000      -0.55717400
O       -3.37043200       0.61289400       0.41556000
H       -0.48170500       0.70938500      -1.13688600
H       -2.98672700      -1.37019900      -1.16452500
S        2.07708600      -0.06793500      -0.12475100
O        2.23151200       1.37548700       0.55680100
O        1.09849400       0.15165300      -1.17681600
O        1.44120000      -0.94166200       1.01694400
O        3.37048200      -0.61286600      -0.41545300
H        2.98661100       1.37061500       1.16414700
H        0.48182400      -0.70920700       1.13714200
17
2sa1w
S        1.80472300      -0.39573800      -0.01453600
O        2.42092600       1.00651700      -0.25028000
O        1.09961600      -0.41691600       1.26246500
O        3.12128900      -1.27471300       0.09007100
O        1.10096100      -0.89279600      -1.17826400
H        1.71348400       1.76894700      -0.13187300
H        3.62512500      -1.03309400       0.88219200
S       -2.14463500      -0.09600000      -0.01728900
O       -1.64693200      -0.60143400       1.39957500
O       -3.57327600      -0.11331400       0.00105400
O       -1.65961600      -1.22721400      -1.01560700
O       -1.41265300       1.12288900      -0.35033800
H       -0.66670800      -0.53567800       1.46396400
H       -0.69745500      -1.13541000      -1.19970700
O        0.67556800       2.77185100       0.05056600
H       -0.18947500       2.31436700       0.00971900
H        0.64655900       3.48972400      -0.58902700
20
2sa2w
S       -1.49639700       0.22998300       0.39170500
O       -1.84600000       1.51092700      -0.41277400
O       -1.08688600      -0.84196200      -0.52411900
O       -2.87513000      -0.14544700       1.01055800
O       -0.57514100       0.54893000       1.47095400
H       -0.99950700       2.08468900      -0.59856200
H       -3.38125000      -0.73517400       0.37002300
S        2.40647400      -0.44204500      -0.09932000
O        1.52085700      -1.69726800      -0.48733600
O        3.77924000      -0.83354900      -0.17514600
O        2.06901400      -0.20125000       1.43102700
O        1.91204400       0.69845600      -0.86472400
H        0.57739000      -1.42982700      -0.59548900
H        1.13619300       0.09875200       1.53754500
O        0.24789700       2.82829000      -0.84702700
H        0.98082300       2.18038500      -0.87933700
H        0.48500400       3.49558300      -0.19642700
O       -3.86749100      -1.73009100      -0.79973900
H       -3.05892700      -1.93809100      -1.28544700
H       -4.52820200      -1.45961200      -1.44384700
23
2sa3w
S        2.33869800      -0.07774400       0.14398400
O        2.31938400      -1.50992400      -0.51418900
O        3.70299000       0.28367100       0.38159000
O        1.63918000      -0.28724800       1.54741900
O        1.46986100       0.78175600      -0.66274400
H        1.38735200      -1.75939100      -0.74408100
H        0.66015400      -0.39524100       1.42838400
S       -1.36604500      -1.19483000      -0.26423600
O       -0.30677400      -2.02312800      -0.84361400
O       -2.54031200      -2.20033500       0.19662500
O       -1.98540200      -0.25461800      -1.22090600
O       -0.99728200      -0.54877200       1.02037300
H       -2.79139100      -2.75565200      -0.55540400
O       -2.00517700       2.24370500      -0.64859600
H       -2.21348800       2.16908300       0.34213800
H       -1.07218800       2.66640700      -0.77996300
H       -1.99240700       1.28774200      -0.98028100
O        0.31528000       3.16910700      -0.86940700
H        0.91556700       2.39890100      -0.76476300
H        0.60769900       3.66695400      -1.63746800
O       -2.35186800       1.68084900       1.81002200
H       -1.95059000       0.78915200       1.77253900
H       -3.19218700       1.61272300       2.27033300
54
3sa3mea
S        1.94400600      -1.94763800       0.76239700
O        0.94224900      -0.88607000       0.36385400
O        2.99201700      -2.04137800      -0.26948900
H        1.77975300       0.59969400      -0.29395000
H        0.16479500       0.06242500       1.58366200
O        2.42313100      -1.74844800       2.12948700
O        1.13159300      -3.30375300       0.78705600
N       -0.35329300       0.70128100       2.22013700
C        0.36036300       0.84631900       3.51041300
H       -0.43659000       1.59639200       1.69637100
H       -1.28911500       0.27064000       2.33214400
H       -0.28507300       1.38891700       4.20503300
H        0.52896800      -0.15948900       3.90379800
C        1.67548100       1.59882800       3.34405700
H        1.47903200       2.62017800       3.00357800
H        2.16049500       1.65692800       4.32680000
O        2.53507800       1.02041000       2.38462200
H        2.63323200       0.05987100       2.52822600
S       -0.89252000       3.07508100      -0.77120800
O       -0.43182500       2.15043400      -1.84552500
O       -2.37091300       2.62079300      -0.37195700
H       -2.40405000       1.63666100      -0.29589200
H       -0.10058800      -0.83228100      -1.16384900
O       -0.05062400       2.82430700       0.46045400
O       -0.98305300       4.46773600      -1.13926600
N        2.20946100       1.54165200      -0.33454600
C        2.76585500       1.83982700      -1.67679900
H        1.42595400       2.18626600      -0.06137000
H        2.88292600       1.55233700       0.43786100
H        1.91757900       2.11258600      -2.30850000
H        3.43376100       2.70021400      -1.59344400
C        3.49815300       0.63360300      -2.24738300
H        3.91156100       0.91045600      -3.22202800
H        4.33293800       0.34316500      -1.59760000
O        2.61594700      -0.46057400      -2.41799600
H        2.80309300      -1.13201400      -1.72691800
N       -0.22545300      -0.55291900      -2.15138600
C       -1.16048700      -1.48186900      -2.82283600
H       -0.55113000       0.43601300      -2.11660300
H        0.72550300      -0.54806500      -2.55335500
H       -2.15689600      -1.26376600      -2.43511800
H       -1.14374100      -1.29050500      -3.89798200
C       -0.77082900      -2.92603500      -2.52272300
H       -1.49672100      -3.59361100      -3.00118600
H        0.21865800      -3.15193500      -2.93220300
O       -0.69657100      -3.17276600      -1.13408500
H        0.51668300      -3.33933900       0.00533600
S       -2.96695100      -0.98745300       0.64241100
O       -2.93245900      -2.37136600       0.14731500
O       -4.47834600      -0.45412100       0.40036800
H       -5.07340600      -0.92571600       0.99980900
H       -1.55192900      -2.97581200      -0.68993900
O       -2.69741000      -0.84566900       2.08193200
O       -2.17437600      -0.05630600      -0.19153200
21
3sa
S        0.20388600       1.35220600      -0.06327700
O       -0.08321700       0.05231700      -0.70267400
O        1.37051100       2.04442200      -0.56145700
H        3.04194700       1.21733600      -0.60921100
O        0.29536000       1.12652000       1.48725700
O       -1.02073000       2.28707200      -0.16877100
O        3.76405400       0.55313500      -0.58104500
S        3.26494300      -0.78886600       0.09755300
O        4.39749000      -1.64336100       0.24479600
O        2.31093300      -1.43395500      -0.99771000
O       -2.47997200      -1.13486100      -1.13387700
H        1.42548000      -1.01188600      -0.97724200
H       -1.57891800      -0.73787800      -1.03594800
O        2.43736600      -0.43722300       1.25153400
O       -3.18317500       0.86117400       0.14536300
H        1.07884900       0.53654600       1.64685900
H       -1.87957400       1.79028600      -0.01811000
O       -4.77167100      -1.02728500      -0.33942200
S       -3.45394800      -0.55603600      -0.03894400
O       -2.92034200      -1.22105300       1.31552200
H       -3.25873200      -2.12648700       1.39221700
28
4sa
S        1.88287200       0.81668800      -0.78655800
O        3.17030400       1.19928400      -1.33186500
O        0.68238500       1.22245100      -1.49225600
O        1.78731400      -0.74086900      -0.63995200
H        2.65652300      -1.11626100      -0.33183300
O        1.86294800       1.36471600       0.68438300
H        0.94832000       1.30100200       1.06677400
S        5.48490700      -0.89530500       0.20767800
O        6.71275200      -1.63241400       0.25531000
O        4.20415900      -1.56875300       0.07834900
O        5.63021300       0.19021600      -0.92264800
O        5.31875700      -0.01904500       1.53931200
H        6.18340400       0.31861700       1.81807600
H        4.75627700       0.62030400      -1.10733900
S       -1.88323300       0.81756400       0.78608700
O       -3.17064300       1.20066800       1.33108900
O       -0.68272200       1.22464800       1.49096800
O       -1.86372400       1.36347800      -0.68567700
O       -1.78729600      -0.74017200       0.64173000
H       -0.94915300       1.29950700      -1.06806300
H       -2.65615900      -1.11607400       0.33325300
S       -5.48452600      -0.89566000      -0.20720000
O       -5.63017000       0.19045300       0.92250400
O       -5.31841600      -0.02009100      -1.53931400
O       -4.20365700      -1.56878300      -0.07736000
O       -6.71221700      -1.63304100      -0.25454100
H       -6.18307300       0.31744100      -1.81821000
H       -4.75635300       0.62090100       1.10697100
