24
1msa1fa1dma-1
S       -1.55584000      -0.23966600      -0.02369600
O       -1.09253000      -0.13635900       1.37071200
O       -1.04842500      -1.47128100      -0.70456800
O       -1.25331300       0.98351000      -0.82717900
C       -3.33052800      -0.38824800      -0.01544600
H       -3.59162300      -1.28574600       0.54546500
H       -3.73934600       0.50104500       0.46440700
H       -3.67224900      -0.46308800      -1.04767300
H        2.16407200       3.43899400       0.41426200
H       -0.25176100       2.05616300      -0.33003500
C        1.57541900       2.55401600       0.13895900
O        0.33098900       2.84929400      -0.07111400
O        2.10309400       1.45060600       0.05456200
N        1.56154400      -1.23932300      -0.09221100
C        1.72061300      -1.76486100       1.28138500
C        2.53041200      -1.76383800      -1.07265300
H        0.57339200      -1.43345800      -0.41109400
H        2.70155600      -1.48009600       1.66541900
H        0.92670900      -1.33208800       1.89155200
H        1.62436600      -2.85168700       1.26061800
H        3.54397000      -1.52405300      -0.74723100
H        2.41081200      -2.84519400      -1.15555600
H        2.33623600      -1.29876300      -2.03914500
H        1.64246500      -0.20069700      -0.05915700
24
1msa1fa1dma-2
S       -1.64091100      -0.12552000      -0.17898500
O       -1.13795100      -1.50726400      -0.45899800
O       -1.87468300       0.69594200      -1.36377600
O       -0.73194800       0.52737500       0.83260600
H        0.04838700       1.82438200       0.50926000
C       -3.20160200      -0.34466100       0.65487500
H       -3.86664700      -0.88270000      -0.02099600
H       -3.03434300      -0.91446500       1.56866300
H       -3.60299400       0.64346000       0.88056100
H        2.34653900       3.35954200      -0.27659600
H        1.66730100      -0.26867800      -0.14944200
C        1.78582500       2.43451500      -0.09153500
O        2.28995000       1.33691200      -0.30456600
O        0.59344100       2.67096900       0.36205200
N        1.49498200      -1.28797000      -0.01300100
C        1.68941500      -1.58967300       1.41968800
C        2.35491600      -2.06097900      -0.92797800
H        0.47546200      -1.44399200      -0.24684900
H        2.71931500      -1.36337700       1.70153200
H        0.99485300      -0.96739800       1.98426200
H        1.47537700      -2.64481200       1.59742100
H        3.40306800      -1.84210300      -0.71738700
H        2.16167700      -3.12612300      -0.79098000
H        2.11991900      -1.77631500      -1.95352400
24
1msa1fa1dma-3
S       -1.68622500      -0.23169400       0.00062600
O       -2.46303300      -1.18158000      -0.78901000
O       -0.75006000       0.59449100      -0.84280100
O       -0.92000800      -0.84205300       1.13400900
C       -2.82081800       0.92310200       0.75058700
H       -2.25242900       1.64589800       1.33653800
H       -3.37070000       1.41730500      -0.05063600
H       -3.49895400       0.35698400       1.38947700
H        2.42588900       3.37171500       0.18706700
H        0.09101000       1.79132500      -0.41927000
C        1.88477700       2.43667700      -0.00665300
O        0.61678600       2.64079800      -0.20340300
O        2.46814900       1.35935200      -0.02096500
N        1.52164100      -1.24123900       0.09846700
C        2.45363900      -1.95657000       0.99007900
C        1.32386600      -1.88103300      -1.22111400
H        0.57800800      -1.14365000       0.56803100
H        3.43575000      -2.01980100       0.51867700
H        2.53193700      -1.40976500       1.92966800
H        2.06750500      -2.95901900       1.18086900
H        2.28709500      -1.97526400      -1.72562600
H        0.87549500      -2.86495200      -1.07608300
H        0.64715500      -1.25442100      -1.80225700
H        1.84689000      -0.26169800      -0.03576700
