46
2sa1ma1tma1eda-37
S       -0.73121800       2.31672800      -0.62249800
O        0.42913100       2.58509200       0.27038200
O       -1.81593900       1.62174900       0.14641100
O       -1.18017200       3.42868200      -1.43419300
O       -0.20620300       1.20752900      -1.67055900
H       -0.07972700       0.33756800      -1.18929100
S        0.45202000      -1.73688700       0.74056500
O        1.28126100      -2.91870800       0.51458300
O        1.26657700      -0.63157700       1.43163700
O        0.00574400      -1.14417700      -0.61352500
O       -0.78549800      -1.96031700       1.53962100
C       -0.46068400       1.95290200       3.37553500
N       -0.72250100       0.79350200       2.50245100
H       -1.23115500       1.08978700       1.63368500
H        0.16202000       0.33092400       2.15187300
H       -1.40417100       2.37218800       3.72647500
H        0.14778400       1.64304300       4.22570100
H        0.06852400       2.69678900       2.77978700
H       -1.24480400       0.04109800       2.94891400
N       -2.63640600      -1.40518600      -0.81765900
C       -2.63142400      -2.87210000      -1.03617000
C       -3.50463200      -1.02399900       0.32101700
C       -2.97555600      -0.64958800      -2.04760100
H       -3.43320200       0.05565900       0.45093000
H       -4.53300100      -1.31879300       0.09609200
H       -3.13391900      -1.53969400       1.20651600
H       -1.92958600      -3.10077800      -1.83829100
H       -2.29024000      -3.34800200      -0.11623700
H       -3.63864900      -3.20217400      -1.30142200
H       -2.24608800      -0.89481000      -2.81979300
H       -3.98124500      -0.92626000      -2.37322700
H       -2.91961900       0.41539300      -1.82299800
H       -1.62824000      -1.17350500      -0.58599200
C        3.90042300      -0.91784700      -1.09751900
N        5.06132000      -0.38051700      -0.38178900
C        2.94826000       0.22240500      -1.44143000
N        2.63124300       0.94578000      -0.18722500
H        5.79993300      -0.10012700      -1.01719000
H        5.44907300      -1.06124400       0.25956800
H        4.15841300      -1.45336000      -2.01963000
H        3.37570300      -1.62754300      -0.44911700
H        2.01777500      -0.15852700      -1.86072600
H        3.39603700       0.93152800      -2.14323800
H        2.12414400       0.29023100       0.48403900
H        1.99324100       1.75356700      -0.29369600
H        3.51505300       1.21770800       0.24990400
46
2sa1ma1tma1eda-46
S       -0.42344900       2.25562900      -0.57666600
O        0.61101100       2.31286700       0.52414500
O       -1.67306400       1.65837500      -0.05149400
O       -0.55836300       3.49175900      -1.31995800
O        0.17862800       1.19173400      -1.61924500
H        0.17594200       0.26367800      -1.21957100
S        0.19319500      -1.79285000       0.62772200
O        1.27719800      -1.14497100       1.46050000
O        0.28450000      -1.25064800      -0.78861200
O        0.24456300      -3.25147500       0.64198400
O       -1.14536400      -1.28160500       1.18522100
C       -1.61014200       1.62720400       3.18440800
N       -0.49902600       0.87128800       2.57815300
H        0.00302100       1.45517400       1.86929200
H        0.17660700       0.52436400       3.25538100
H       -2.24818300       1.97142000       2.37042900
H       -2.17134200       0.97811200       3.85770000
H       -1.22295600       2.48646300       3.73324400
H       -0.83937600       0.01749000       2.03697500
N       -2.81720000      -1.06511000      -0.89530700
C       -2.94570100      -2.54439200      -0.89691500
C       -4.01413700      -0.39530200      -0.33656000
C       -2.47351800      -0.54783600      -2.24184700
H       -3.81254600       0.67538900      -0.30113500
H       -4.87800200      -0.61225000      -0.96934400
H       -4.18238700      -0.77612400       0.67157600
H       -2.00319300      -2.97108900      -1.24134700
H       -3.12384400      -2.87884000       0.12436100
H       -3.76946900      -2.83141000      -1.55455400
H       -1.53349300      -1.00375200      -2.54982500
H       -3.27944900      -0.80982800      -2.93211100
H       -2.35136500       0.53173200      -2.17803800
H       -2.03509000      -0.87113200      -0.21793300
C        3.21416300       0.06055500      -1.14493900
N        2.76692100       0.60583300       0.15744800
C        4.31307200      -0.95926300      -0.87421900
N        5.37484100      -0.33074800      -0.08391800
H        2.11984600       1.41390400       0.08815600
H        3.60358900       0.85354700       0.69312600
H        2.35573400      -0.40544700      -1.62783600
H        3.57342500       0.88895600      -1.76147600
H        4.65526200      -1.37673600      -1.82962800
H        3.88708300      -1.78194000      -0.29128300
H        6.02396900       0.18137400      -0.67160200
H        5.90860500      -1.01533000       0.43747200
H        2.21762900      -0.13510000       0.69654700
46
2sa1ma1tma1eda-35
S       -0.52895500       2.36605900      -0.19235600
O        0.59537400       2.25697900       0.80613900
O       -1.72940900       1.67084800       0.34333800
O       -0.73248500       3.70070700      -0.71804400
O       -0.02914700       1.48403200      -1.44194600
H        0.00050600       0.51088000      -1.17373300
S        0.14547700      -1.84364800       0.36220200
O        0.25460200      -3.26901300       0.06764300
O        1.31840300      -1.30390900       1.15105500
O        0.03230600      -1.03433300      -0.92960800
O       -1.11730800      -1.52691200       1.16094000
C        0.19228800       0.13685800       3.87725400
N       -0.55299800       0.55764100       2.67652300
H       -0.78214800      -0.28883500       2.06108800
H       -1.42541800       1.03840400       2.88172400
H        1.05991200      -0.43082500       3.53903100
H        0.50441600       1.00878500       4.45359600
H       -0.43911000      -0.50901500       4.48828900
H       -0.01328900       1.20870700       2.06628400
N       -2.85911300      -0.79472100      -0.94913400
C       -2.90916600       0.08681900      -2.14162300
C       -2.86391500      -2.23338700      -1.32094500
C       -3.92343400      -0.46911900       0.02922900
H       -2.74851500      -2.82283200      -0.41201600
H       -3.80392100      -2.46194200      -1.82746800
H       -2.00884700      -2.42205000      -1.96944300
H       -2.86280700       1.12161700      -1.80735600
H       -2.04346500      -0.13261800      -2.76609100
H       -3.83568000      -0.11116000      -2.68500500
H       -3.81858500       0.58058200       0.30188200
H       -4.89715000      -0.66291100      -0.42628800
H       -3.77538500      -1.09998900       0.90544700
H       -1.95765700      -0.63395000      -0.46618900
C        4.10243300      -0.80466400      -1.36688100
N        5.24692700      -0.29389300      -0.60776300
C        3.00431300       0.25123500      -1.39410500
N        2.69095200       0.61940600       0.00545800
H        5.84633600       0.28822700      -1.18303000
H        5.81477700      -1.04552000      -0.23643700
H        4.34386400      -1.09430800      -2.39741400
H        3.71666900      -1.69362100      -0.85803000
H        2.09513800      -0.14002900      -1.85058000
H        3.32126700       1.15103100      -1.92805500
H        2.17751900      -0.18889000       0.48540200
H        2.05562700       1.43226800       0.10814200
H        3.57742100       0.78673800       0.48941500
