23
2fa1tma-1
C       -0.23788100       2.25444900      -0.02868200
O       -1.35296600       2.29826100       0.48768000
O        0.28153700       1.21671500      -0.59860000
H        0.40686700       3.15344700      -0.02611300
H        3.96813500      -0.79227200       0.30009000
H        1.78892000       0.88461200      -0.51967700
C        2.90808100      -0.53845000       0.15428200
O        2.77012400       0.63086500      -0.41576400
O        2.00916800      -1.28725700       0.49730300
N       -1.28210200      -0.80306500      -0.09997500
C       -1.16627700      -0.93515100       1.37209400
H       -0.12826900      -1.17136700       1.60834600
H       -1.44271100       0.02224800       1.81612800
H       -1.83417900      -1.72778300       1.72007900
C       -2.64659900      -0.39709800      -0.50566600
H       -2.85848300       0.56731700      -0.04221000
H       -2.67264600      -0.28800200      -1.59096100
H       -3.36354700      -1.15972700      -0.19017200
C       -0.82373600      -2.02168100      -0.80168700
H       -0.87332700      -1.84628500      -1.87745900
H        0.20692000      -2.22009900      -0.50723600
H       -1.47162100      -2.86103900      -0.53425400
H       -0.61577000       0.01931400      -0.36373300
23
2fa1tma-2
H       -5.12383100      -0.64510400      -0.00075600
H       -2.29392500      -0.90464500       0.00055800
C       -4.09129400      -0.26845300      -0.00031400
O       -3.22507900      -1.26411900       0.00018100
O       -3.81631700       0.91270900      -0.00037900
H       -1.51535000       1.58219700       0.00049100
H        1.30876800       0.89539800       0.00009300
C       -0.63098300       0.93300000       0.00045300
O        0.50226300       1.56998800       0.00018200
O       -0.73786500      -0.29327000       0.00053500
N        2.49425600      -0.10351100      -0.00011200
C        2.34121800      -0.91964000      -1.20649600
H        1.35397700      -1.38681400      -1.19466900
H        2.41499700      -0.28015700      -2.09003200
H        3.11498600      -1.69999000      -1.26692200
C        3.76411600       0.62168500      -0.00001000
H        3.82128400       1.25810100      -0.88669800
H        3.82129400       1.25782700       0.88687400
H        4.62412500      -0.06560900      -0.00012400
C        2.34124400      -0.92003500       1.20600900
H        2.41507400      -0.28084300       2.08975100
H        1.35398200      -1.38716700       1.19406900
H        3.11499300      -1.70042500       1.26614800
23
2fa1tma-3
H        0.18427500       3.28396400      -0.08294300
H       -1.54225200       0.56104500      -0.00605500
C       -0.15301000       2.23386200      -0.01767100
O       -1.39988000       2.03351200      -0.06030900
O        0.70564500       1.33034200       0.09178600
H        4.10275300      -1.25263100      -0.06064400
H        2.21281000       0.88855100       0.04053500
C        3.09084400      -0.82234800      -0.02640900
O        3.13648300       0.48905800       0.01034400
O        2.09003900      -1.51395800      -0.02562500
N       -1.68579600      -0.53590400       0.00554600
C       -1.04926900      -1.05457300       1.23793000
H        0.01681700      -0.83394000       1.18425200
H       -1.49646900      -0.55525100       2.09899400
H       -1.20882500      -2.13436200       1.30411200
C       -3.14298900      -0.76620500      -0.01119900
H       -3.58621300      -0.29873700       0.86919300
H       -3.56400900      -0.30927300      -0.90789000
H       -3.35135200      -1.83965200      -0.00720200
C       -1.01998200      -1.07090300      -1.20444000
H       -1.43877200      -0.57460400      -2.08136600
H        0.04742800      -0.86469800      -1.12196400
H       -1.18747700      -2.14972400      -1.26667300
