16
1pz
C        0.84250000      -1.13506300       0.20232100
C       -0.62091400      -1.26906300      -0.20237900
N       -1.36373700      -0.12526900       0.31836100
C       -0.84250300       1.13506200      -0.20230900
C        0.62092200       1.26906100       0.20236100
N        1.36373400       0.12526800      -0.31834900
H        1.42115600      -1.96048600      -0.22375900
H       -1.04028800      -2.18587100       0.22352100
H       -0.90649000       1.19528400      -1.30364900
H        1.04027500       2.18587000      -0.22355900
H        0.90646700      -1.19528500       1.30367100
H       -0.67270600      -1.33992900      -1.30370900
H        0.67271300       1.33995700       1.30369100
H       -1.42113900       1.96048500       0.22379100
H        2.35006400       0.21631200      -0.10457900
H       -2.35006600      -0.21631300       0.10454100
