3PZ-4SA.log
 OpenBabel07191916323D
Gaussian 09 #p opt freq wB97XD/6-31++G(d,p) iop(5/13=1) iop(1/11=1)
 76 72  0  0  0  0  0  0  0  0999 V2000
   -3.7854   -2.4666   -0.4413 C   0  0  0  0  0  0  0  0  0  0  0  0
   -3.3916   -3.6928   -1.2500 C   0  0  0  0  0  0  0  0  0  0  0  0
   -3.6135   -3.4172   -2.6637 N   0  0  0  0  0  0  0  0  0  0  0  0
   -2.7636   -2.3270   -3.1342 C   0  0  0  0  0  0  0  0  0  0  0  0
   -3.1182   -1.0583   -2.3736 C   0  0  0  0  0  0  0  0  0  0  0  0
   -2.9985   -1.2941   -0.9075 N   0  0  0  0  0  0  0  0  0  0  0  0
   -3.5803   -2.5816    0.6241 H   0  0  0  0  0  0  0  0  0  0  0  0
   -4.0210   -4.5312   -0.9411 H   0  0  0  0  0  0  0  0  0  0  0  0
   -1.6904   -2.5355   -3.0020 H   0  0  0  0  0  0  0  0  0  0  0  0
   -2.4455   -0.2365   -2.6257 H   0  0  0  0  0  0  0  0  0  0  0  0
   -4.8405   -2.2257   -0.5877 H   0  0  0  0  0  0  0  0  0  0  0  0
   -2.3408   -3.9502   -1.0265 H   0  0  0  0  0  0  0  0  0  0  0  0
   -4.1502   -0.7558   -2.5627 H   0  0  0  0  0  0  0  0  0  0  0  0
   -2.9523   -2.1558   -4.1966 H   0  0  0  0  0  0  0  0  0  0  0  0
   -2.0068   -1.4288   -0.6594 H   0  0  0  0  0  0  0  0  0  0  0  0
   -3.4581   -4.2506   -3.2181 H   0  0  0  0  0  0  0  0  0  0  0  0
   -1.3848    0.5986    1.6115 S   0  0  0  0  0  0  0  0  0  0  0  0
   -1.4590    1.0135    0.1197 O   0  0  0  0  0  0  0  0  0  0  0  0
    0.0510    0.6872    2.0179 O   0  0  0  0  0  0  0  0  0  0  0  0
    2.1502    1.6696   -0.3733 H   0  0  0  0  0  0  0  0  0  0  0  0
   -3.3337   -0.4519   -0.4129 H   0  0  0  0  0  0  0  0  0  0  0  0
   -2.2423    1.5204    2.3832 O   0  0  0  0  0  0  0  0  0  0  0  0
   -1.8461   -0.8221    1.7001 O   0  0  0  0  0  0  0  0  0  0  0  0
   -4.6303    2.2153    0.0369 S   0  0  0  0  0  0  0  0  0  0  0  0
   -4.5000    2.5477    1.5668 O   0  0  0  0  0  0  0  0  0  0  0  0
   -3.2724    2.7416   -0.5860 O   0  0  0  0  0  0  0  0  0  0  0  0
   -2.5277    2.1193   -0.3227 H   0  0  0  0  0  0  0  0  0  0  0  0
   -3.6807    2.1072    1.9496 H   0  0  0  0  0  0  0  0  0  0  0  0
   -4.6502    0.7593   -0.1265 O   0  0  0  0  0  0  0  0  0  0  0  0
   -5.7043    2.9985   -0.5007 O   0  0  0  0  0  0  0  0  0  0  0  0
    0.9028   -1.1327   -1.2635 S   0  0  0  0  0  0  0  0  0  0  0  0
    1.8005   -0.9892   -0.0614 O   0  0  0  0  0  0  0  0  0  0  0  0
    0.3016    0.3035   -1.5394 O   0  0  0  0  0  0  0  0  0  0  0  0
   -0.4091    0.5473   -0.8396 H   0  0  0  0  0  0  0  0  0  0  0  0
    0.9974   -1.6716    1.3970 H   0  0  0  0  0  0  0  0  0  0  0  0
    1.6574   -1.4798   -2.4704 O   0  0  0  0  0  0  0  0  0  0  0  0
   -0.2217   -2.0297   -0.9459 O   0  0  0  0  0  0  0  0  0  0  0  0
    1.9097    4.3794   -0.5106 C   0  0  0  0  0  0  0  0  0  0  0  0
    0.9701    3.3257    0.0510 C   0  0  0  0  0  0  0  0  0  0  0  0
    1.7538    2.1257    0.4628 N   0  0  0  0  0  0  0  0  0  0  0  0
    2.8642    2.4576    1.4009 C   0  0  0  0  0  0  0  0  0  0  0  0
    3.7417    3.5544    0.8161 C   0  0  0  0  0  0  0  0  0  0  0  0
    2.9079    4.7088    0.5008 N   0  0  0  0  0  0  0  0  0  0  0  0
    1.3268    5.2723   -0.7487 H   0  0  0  0  0  0  0  0  0  0  0  0
    0.2347    2.9975   -0.6836 H   0  0  0  0  0  0  0  0  0  0  0  0
    2.4018    2.7827    2.3359 H   0  0  0  0  0  0  0  0  0  0  0  0
    4.4835    3.8382    1.5666 H   0  0  0  0  0  0  0  0  0  0  0  0
    2.3573    4.0013   -1.4456 H   0  0  0  0  0  0  0  0  0  0  0  0
    0.4516    3.6919    0.9400 H   0  0  0  0  0  0  0  0  0  0  0  0
    4.2737    3.1588   -0.0629 H   0  0  0  0  0  0  0  0  0  0  0  0
    3.4301    1.5391    1.5693 H   0  0  0  0  0  0  0  0  0  0  0  0
    3.4818    5.4848    0.1934 H   0  0  0  0  0  0  0  0  0  0  0  0
    1.1116    1.4556    0.9453 H   0  0  0  0  0  0  0  0  0  0  0  0
    4.5133    0.2869   -1.6606 S   0  0  0  0  0  0  0  0  0  0  0  0
    4.3601   -0.5471   -0.3178 O   0  0  0  0  0  0  0  0  0  0  0  0
    4.2016   -0.7596   -2.7944 O   0  0  0  0  0  0  0  0  0  0  0  0
    3.2354   -1.0104   -2.7730 H   0  0  0  0  0  0  0  0  0  0  0  0
    3.3917   -0.7694   -0.1879 H   0  0  0  0  0  0  0  0  0  0  0  0
    3.4598    1.3008   -1.6636 O   0  0  0  0  0  0  0  0  0  0  0  0
    5.8878    0.6771   -1.7752 O   0  0  0  0  0  0  0  0  0  0  0  0
    2.4723   -2.5066    3.4856 C   0  0  0  0  0  0  0  0  0  0  0  0
    1.0624   -1.9375    3.4528 C   0  0  0  0  0  0  0  0  0  0  0  0
    0.4646   -2.1971    2.1163 N   0  0  0  0  0  0  0  0  0  0  0  0
    0.4708   -3.6381    1.7537 C   0  0  0  0  0  0  0  0  0  0  0  0
    1.8962   -4.1637    1.8304 C   0  0  0  0  0  0  0  0  0  0  0  0
    2.4224   -3.9288    3.1699 N   0  0  0  0  0  0  0  0  0  0  0  0
    2.8856   -2.3719    4.4880 H   0  0  0  0  0  0  0  0  0  0  0  0
    1.0405   -0.8577    3.6039 H   0  0  0  0  0  0  0  0  0  0  0  0
   -0.1735   -4.1625    2.4639 H   0  0  0  0  0  0  0  0  0  0  0  0
    1.8884   -5.2375    1.6284 H   0  0  0  0  0  0  0  0  0  0  0  0
    3.1048   -1.9359    2.7810 H   0  0  0  0  0  0  0  0  0  0  0  0
    0.4308   -2.4272    4.1980 H   0  0  0  0  0  0  0  0  0  0  0  0
    2.4955   -3.6741    1.0426 H   0  0  0  0  0  0  0  0  0  0  0  0
    0.0653   -3.7173    0.7443 H   0  0  0  0  0  0  0  0  0  0  0  0
    3.3377   -4.3501    3.2725 H   0  0  0  0  0  0  0  0  0  0  0  0
   -0.4975   -1.7847    2.0526 H   0  0  0  0  0  0  0  0  0  0  0  0
  1  7  1  0  0  0  0
  2 12  1  0  0  0  0
  2  8  1  0  0  0  0
  2  1  1  0  0  0  0
  3  2  1  0  0  0  0
  4  9  1  0  0  0  0
  4  3  1  0  0  0  0
  4  5  1  0  0  0  0
  5  6  1  0  0  0  0
  6 15  1  0  0  0  0
  6  1  1  0  0  0  0
  6 21  1  0  0  0  0
 10  5  1  0  0  0  0
 11  1  1  0  0  0  0
 13  5  1  0  0  0  0
 14  4  1  0  0  0  0
 16  3  1  0  0  0  0
 17 23  2  0  0  0  0
 17 19  1  0  0  0  0
 17 22  1  0  0  0  0
 18 17  2  0  0  0  0
 20 40  1  0  0  0  0
 24 25  1  0  0  0  0
 25 28  1  0  0  0  0
 26 27  1  0  0  0  0
 26 24  1  0  0  0  0
 29 24  2  0  0  0  0
 30 24  2  0  0  0  0
 31 37  2  0  0  0  0
 31 32  1  0  0  0  0
 33 31  1  0  0  0  0
 33 34  1  0  0  0  0
 35 63  1  0  0  0  0
 36 31  2  0  0  0  0
 38 39  1  0  0  0  0
 38 43  1  0  0  0  0
 39 40  1  0  0  0  0
 39 49  1  0  0  0  0
 40 53  1  0  0  0  0
 40 41  1  0  0  0  0
 41 51  1  0  0  0  0
 41 46  1  0  0  0  0
 42 41  1  0  0  0  0
 42 47  1  0  0  0  0
 43 42  1  0  0  0  0
 44 38  1  0  0  0  0
 45 39  1  0  0  0  0
 48 38  1  0  0  0  0
 50 42  1  0  0  0  0
 52 43  1  0  0  0  0
 54 55  1  0  0  0  0
 55 58  1  0  0  0  0
 56 57  1  0  0  0  0
 56 54  1  0  0  0  0
 59 54  2  0  0  0  0
 60 54  2  0  0  0  0
 61 67  1  0  0  0  0
 62 61  1  0  0  0  0
 62 68  1  0  0  0  0
 62 72  1  0  0  0  0
 63 62  1  0  0  0  0
 64 65  1  0  0  0  0
 64 63  1  0  0  0  0
 64 69  1  0  0  0  0
 65 66  1  0  0  0  0
 66 75  1  0  0  0  0
 66 61  1  0  0  0  0
 70 65  1  0  0  0  0
 71 61  1  0  0  0  0
 73 65  1  0  0  0  0
 74 64  1  0  0  0  0
 76 63  1  0  0  0  0
M  RAD  3  19   2  22   2  32   2
M  END
$$$$
