3PZ.log
 OpenBabel07191916323D
Gaussian 09 #p opt freq wB97XD/6-31++G(d,p) iop(5/13=1) iop(1/11=1)
 48 48  0  0  0  0  0  0  0  0999 V2000
    0.4523    2.2714   -1.4532 C   0  0  0  0  0  0  0  0  0  0  0  0
    1.8064    2.9152   -1.1498 C   0  0  0  0  0  0  0  0  0  0  0  0
    1.7373    3.5687    0.1536 N   0  0  0  0  0  0  0  0  0  0  0  0
    1.4251    2.6145    1.2121 C   0  0  0  0  0  0  0  0  0  0  0  0
    0.0741    1.9641    0.9111 C   0  0  0  0  0  0  0  0  0  0  0  0
    0.0221    1.3455   -0.4105 N   0  0  0  0  0  0  0  0  0  0  0  0
    0.4961    1.7313   -2.4047 H   0  0  0  0  0  0  0  0  0  0  0  0
    2.0507    3.6635   -1.9109 H   0  0  0  0  0  0  0  0  0  0  0  0
    2.1880    1.8161    1.2927 H   0  0  0  0  0  0  0  0  0  0  0  0
   -1.5146   -0.0944   -0.3528 H   0  0  0  0  0  0  0  0  0  0  0  0
   -0.3019    3.0628   -1.5497 H   0  0  0  0  0  0  0  0  0  0  0  0
    2.5848    2.1280   -1.1800 H   0  0  0  0  0  0  0  0  0  0  0  0
   -0.7093    2.7308    0.9686 H   0  0  0  0  0  0  0  0  0  0  0  0
    1.3860    3.1432    2.1703 H   0  0  0  0  0  0  0  0  0  0  0  0
    0.6166    0.5085   -0.4141 H   0  0  0  0  0  0  0  0  0  0  0  0
    2.6045    4.0523    0.3556 H   0  0  0  0  0  0  0  0  0  0  0  0
   -4.1536   -0.3256   -1.1072 C   0  0  0  0  0  0  0  0  0  0  0  0
   -2.9667   -1.2898   -1.1473 C   0  0  0  0  0  0  0  0  0  0  0  0
   -1.9631   -0.9898   -0.1287 N   0  0  0  0  0  0  0  0  0  0  0  0
   -2.5681   -0.8938    1.1981 C   0  0  0  0  0  0  0  0  0  0  0  0
   -3.7516    0.0735    1.2384 C   0  0  0  0  0  0  0  0  0  0  0  0
   -4.7287   -0.3360    0.2345 N   0  0  0  0  0  0  0  0  0  0  0  0
   -4.9190   -0.6375   -1.8254 H   0  0  0  0  0  0  0  0  0  0  0  0
   -2.4868   -1.2555   -2.1309 H   0  0  0  0  0  0  0  0  0  0  0  0
   -2.9140   -1.8917    1.4957 H   0  0  0  0  0  0  0  0  0  0  0  0
   -4.2257    0.0531    2.2252 H   0  0  0  0  0  0  0  0  0  0  0  0
   -3.7980    0.6810   -1.4002 H   0  0  0  0  0  0  0  0  0  0  0  0
   -3.3332   -2.3113   -0.9855 H   0  0  0  0  0  0  0  0  0  0  0  0
   -3.3715    1.0983    1.0606 H   0  0  0  0  0  0  0  0  0  0  0  0
   -1.7996   -0.5788    1.9127 H   0  0  0  0  0  0  0  0  0  0  0  0
   -5.5486    0.2580    0.2738 H   0  0  0  0  0  0  0  0  0  0  0  0
   -0.1498    1.1993    1.6631 H   0  0  0  0  0  0  0  0  0  0  0  0
    1.6094   -1.7101    1.2467 C   0  0  0  0  0  0  0  0  0  0  0  0
    3.0933   -1.3614    1.2335 C   0  0  0  0  0  0  0  0  0  0  0  0
    3.7663   -2.1857    0.2356 N   0  0  0  0  0  0  0  0  0  0  0  0
    3.2150   -1.9733   -1.0991 C   0  0  0  0  0  0  0  0  0  0  0  0
    1.7323   -2.3255   -1.0831 C   0  0  0  0  0  0  0  0  0  0  0  0
    1.0568   -1.5044   -0.0863 N   0  0  0  0  0  0  0  0  0  0  0  0
    1.0798   -1.0585    1.9507 H   0  0  0  0  0  0  0  0  0  0  0  0
    3.5349   -1.5605    2.2148 H   0  0  0  0  0  0  0  0  0  0  0  0
    3.3209   -0.9247   -1.4343 H   0  0  0  0  0  0  0  0  0  0  0  0
    1.2884   -2.1250   -2.0635 H   0  0  0  0  0  0  0  0  0  0  0  0
    1.4957   -2.7527    1.5914 H   0  0  0  0  0  0  0  0  0  0  0  0
    3.1955   -0.2809    1.0208 H   0  0  0  0  0  0  0  0  0  0  0  0
    1.6304   -3.4046   -0.8733 H   0  0  0  0  0  0  0  0  0  0  0  0
    3.7464   -2.6167   -1.8070 H   0  0  0  0  0  0  0  0  0  0  0  0
    0.0468   -1.6683   -0.0942 H   0  0  0  0  0  0  0  0  0  0  0  0
    4.7637   -2.0077    0.2414 H   0  0  0  0  0  0  0  0  0  0  0  0
  1  2  1  0  0  0  0
  1  6  1  0  0  0  0
  2  3  1  0  0  0  0
  3 16  1  0  0  0  0
  3  4  1  0  0  0  0
  4  9  1  0  0  0  0
  4 14  1  0  0  0  0
  5 13  1  0  0  0  0
  5  4  1  0  0  0  0
  5 32  1  0  0  0  0
  6  5  1  0  0  0  0
  7  1  1  0  0  0  0
  8  2  1  0  0  0  0
 10 19  1  0  0  0  0
 11  1  1  0  0  0  0
 12  2  1  0  0  0  0
 15  6  1  0  0  0  0
 17 22  1  0  0  0  0
 18 17  1  0  0  0  0
 18 28  1  0  0  0  0
 18 19  1  0  0  0  0
 19 20  1  0  0  0  0
 20 21  1  0  0  0  0
 20 25  1  0  0  0  0
 20 30  1  0  0  0  0
 21 26  1  0  0  0  0
 22 31  1  0  0  0  0
 22 21  1  0  0  0  0
 23 17  1  0  0  0  0
 24 18  1  0  0  0  0
 27 17  1  0  0  0  0
 29 21  1  0  0  0  0
 33 43  1  0  0  0  0
 33 39  1  0  0  0  0
 34 33  1  0  0  0  0
 34 40  1  0  0  0  0
 35 48  1  0  0  0  0
 35 34  1  0  0  0  0
 36 37  1  0  0  0  0
 36 35  1  0  0  0  0
 37 45  1  0  0  0  0
 37 38  1  0  0  0  0
 38 33  1  0  0  0  0
 41 36  1  0  0  0  0
 42 37  1  0  0  0  0
 44 34  1  0  0  0  0
 46 36  1  0  0  0  0
 47 38  1  0  0  0  0
M  END
$$$$
