PZ.log
 OpenBabel07191916323D
Gaussian 09 #p opt freq wB97XD/6-31++G(d,p) iop(5/13=1) iop(1/11=1)
 16 16  0  0  0  0  0  0  0  0999 V2000
    0.8425   -1.1351    0.2023 C   0  0  0  0  0  0  0  0  0  0  0  0
   -0.6209   -1.2691   -0.2024 C   0  0  0  0  0  0  0  0  0  0  0  0
   -1.3637   -0.1253    0.3184 N   0  0  0  0  0  0  0  0  0  0  0  0
   -0.8425    1.1351   -0.2023 C   0  0  0  0  0  0  0  0  0  0  0  0
    0.6209    1.2691    0.2024 C   0  0  0  0  0  0  0  0  0  0  0  0
    1.3637    0.1253   -0.3183 N   0  0  0  0  0  0  0  0  0  0  0  0
    1.4212   -1.9605   -0.2238 H   0  0  0  0  0  0  0  0  0  0  0  0
   -1.0403   -2.1859    0.2235 H   0  0  0  0  0  0  0  0  0  0  0  0
   -0.9065    1.1953   -1.3036 H   0  0  0  0  0  0  0  0  0  0  0  0
    1.0403    2.1859   -0.2236 H   0  0  0  0  0  0  0  0  0  0  0  0
    0.9065   -1.1953    1.3037 H   0  0  0  0  0  0  0  0  0  0  0  0
   -0.6727   -1.3399   -1.3037 H   0  0  0  0  0  0  0  0  0  0  0  0
    0.6727    1.3400    1.3037 H   0  0  0  0  0  0  0  0  0  0  0  0
   -1.4211    1.9605    0.2238 H   0  0  0  0  0  0  0  0  0  0  0  0
    2.3501    0.2163   -0.1046 H   0  0  0  0  0  0  0  0  0  0  0  0
   -2.3501   -0.2163    0.1045 H   0  0  0  0  0  0  0  0  0  0  0  0
  1 11  1  0  0  0  0
  2  1  1  0  0  0  0
  2  8  1  0  0  0  0
  2  3  1  0  0  0  0
  4  5  1  0  0  0  0
  4 14  1  0  0  0  0
  4  3  1  0  0  0  0
  5 13  1  0  0  0  0
  6 15  1  0  0  0  0
  6  1  1  0  0  0  0
  6  5  1  0  0  0  0
  7  1  1  0  0  0  0
  9  4  1  0  0  0  0
 10  5  1  0  0  0  0
 12  2  1  0  0  0  0
 16  3  1  0  0  0  0
M  END
$$$$
