SA.log
 OpenBabel07191916323D
Gaussian 09 #p opt freq wB97XD/6-31++G(d,p) iop(5/13=1) iop(1/11=1)
  7  6  0  0  0  0  0  0  0  0999 V2000
   -0.0000    0.0000   -0.1621 S   0  0  0  0  0  0  0  0  0  0  0  0
    1.0498    0.6727    0.8523 O   0  0  0  0  0  0  0  0  0  0  0  0
   -1.0487   -0.6727    0.8534 O   0  0  0  0  0  0  0  0  0  0  0  0
   -1.6934   -0.0056    1.1321 H   0  0  0  0  0  0  0  0  0  0  0  0
    1.6927    0.0048    1.1332 H   0  0  0  0  0  0  0  0  0  0  0  0
   -0.6464    1.0944   -0.8318 O   0  0  0  0  0  0  0  0  0  0  0  0
    0.6455   -1.0943   -0.8327 O   0  0  0  0  0  0  0  0  0  0  0  0
  1  2  1  0  0  0  0
  1  3  1  0  0  0  0
  2  5  1  0  0  0  0
  3  4  1  0  0  0  0
  6  1  2  0  0  0  0
  7  1  2  0  0  0  0
M  END
$$$$
