51
3sa1am2ma1eda-48
S       -2.75930100       0.66218900       0.65712000
O       -2.12618700       0.22086700      -0.75789000
O       -3.87836900       1.51705200       0.30437500
O       -3.09013700      -0.59268200       1.37199300
O       -1.64629900       1.37181600       1.37363200
H       -0.51541600       2.29200500       0.44487100
H       -2.98673800      -2.08430700       0.55608200
S        0.27596100      -2.39168100      -0.19895400
O       -0.19746100      -2.76066300       1.17105600
O       -0.63236600      -2.98793700      -1.22237500
O        0.16364200      -0.85501500      -0.30701600
O        1.69148400      -2.77018000      -0.43519600
H        1.37011800       0.04052900      -0.42736000
H       -1.23418900      -0.24153200      -0.61373000
S        2.93663400       1.15850200       0.68749500
O        2.09835000       0.72546700      -0.62254600
O        2.63132200       2.58558100       0.88609900
O        2.46092700       0.27956300       1.77911800
O        4.34044400       0.88168600       0.32408900
H        4.28923800      -0.75149700      -0.20125100
H        0.94355500      -0.15117100       2.42300500
N       -0.00629800      -0.49727800       2.67372600
H       -0.69952000       0.18064200       2.30442600
H       -0.10498300      -0.59696300       3.67889700
H       -0.14147200      -1.41939400       2.18638100
N        4.08168400      -1.65136300      -0.69790100
H        3.12226700      -1.99716700      -0.42614300
H        4.75850600      -2.35573100      -0.41371600
C        4.09874000      -1.42261300      -2.16200100
H        3.38701800      -0.62503400      -2.37109500
H        5.09762100      -1.11830400      -2.47425000
H        3.79383900      -2.33643600      -2.67081900
N       -3.03921300      -2.89552400      -0.10041200
H       -3.20387000      -3.73816700       0.44505100
H       -2.08486200      -2.98879900      -0.56608500
C       -4.09641200      -2.64619500      -1.10336800
H       -5.05833000      -2.52684500      -0.60481400
H       -3.84261100      -1.72427700      -1.62618200
H       -4.13336000      -3.47522200      -1.81005200
C       -0.59970900       4.10045500      -0.59135600
C       -1.82656000       3.71493700      -1.42654500
N       -1.43196100       2.74350600      -2.44553000
N        0.08947200       2.85248800      -0.19420800
H        1.02430100       2.97399200       0.24513500
H        0.22019800       2.29438200      -1.04825200
H       -0.87654800       4.65229600       0.30892700
H        0.10747800       4.69414800      -1.17562300
H       -2.24953900       4.62546900      -1.86274400
H       -2.59139000       3.28604700      -0.77098200
H       -1.53949300       3.08943200      -3.38878200
H       -1.93947800       1.87097100      -2.34426900
51
3sa1am2ma1eda-37
S       -3.19983600      -1.88214000      -0.28210200
O       -2.26488000      -2.80645100       0.38245200
O       -4.05533200      -1.13555100       0.66029000
O       -2.58645100      -1.02328400      -1.31220900
O       -4.19172000      -2.81906600      -1.16098900
H       -4.57169000      -3.48784800      -0.57508500
S        3.19398000      -1.67667700      -0.45179900
O        3.35009200      -0.62029900      -1.49199300
O        1.79091600      -2.21546900      -0.52870600
O        4.22377500      -2.68789300      -0.41477800
O        3.27257700      -0.93007900       0.96635600
H        2.64387300      -0.15149300       1.01559800
S        0.53347700       1.68562500       0.63247100
O        0.83208800       1.88157700      -0.85421000
O        1.77616100       1.17635600       1.29582600
O        0.03791700       2.92967300       1.23385200
O       -0.52786700       0.59357600       0.70467700
N        0.09894500      -0.58672100      -1.95559200
H        0.21456700      -0.68525500      -2.95989500
H        0.35399700       0.37769900      -1.64654800
H       -0.88449100      -0.78622400      -1.68670400
H        0.74375100      -1.25409500      -1.47131900
C        0.57735600      -2.12111000       2.97383900
N        0.09165300      -1.90775500       1.59663600
H        0.79533600      -2.19819700       0.88763400
H       -0.78947100      -2.39816000       1.37376400
H        1.50935200      -1.57115500       3.10157700
H       -0.16859900      -1.75773900       3.68043900
H        0.75470300      -3.18418200       3.13515200
H       -0.09650400      -0.89961400       1.39542800
C        4.27362100       2.58077100      -0.02459700
N        3.50606500       2.01417100      -1.15833300
H        3.61169100       0.96876700      -1.23247900
H        2.46329600       2.13650000      -1.03853000
H        5.32697100       2.32381500      -0.13580500
H        4.14689100       3.66334200      -0.00701900
H        3.86947200       2.15445600       0.89217700
H        3.78660000       2.42123900      -2.04740700
C       -2.50974200       3.37471700      -0.84912100
N       -2.57594300       4.13266600       0.40035800
C       -3.37618100       2.11808000      -0.73276000
N       -3.08383900       1.47112000       0.56856800
H       -2.87602800       5.08794100       0.26383100
H       -1.66725300       4.12582800       0.85819900
H       -2.86926600       3.96136000      -1.70041800
H       -1.47634900       3.08275300      -1.06708400
H       -3.17564900       1.38725400      -1.51772400
H       -4.43936400       2.37171700      -0.73918100
H       -2.08111200       1.15138000       0.61229700
H       -3.66075000       0.62616800       0.72513600
H       -3.21261200       2.18096700       1.29666600
51
3sa1am2ma1eda-38
S       -3.18372500      -1.89518400      -0.27263300
O       -2.62182700      -1.05360000      -1.35667800
O       -2.18426600      -2.80854700       0.31118700
O       -3.98065500      -1.12774800       0.69162000
O       -4.28355600      -2.86189300      -0.97199700
H       -3.81565600      -3.61654700      -1.35375800
S        3.16928200      -1.67571800      -0.46795700
O        3.29642000      -0.63196300      -1.52535600
O        1.76387100      -2.21224900      -0.49761100
O        4.19923900      -2.68724400      -0.44872500
O        3.29077800      -0.91068000       0.93720700
H        2.64677800      -0.14609700       1.00415700
S        0.52787000       1.68698300       0.64397500
O        0.83167000       1.88047800      -0.84180600
O        0.03897300       2.93403400       1.24386100
O       -0.54189800       0.60214500       0.71171400
O        1.76354600       1.16630800       1.31157800
N        0.07350800      -0.58377200      -1.93473000
H        0.20849400      -0.68571600      -2.93625700
H        0.33443100       0.37892400      -1.62567200
H       -0.91681600      -0.77591800      -1.68213700
H        0.70555400      -1.25409200      -1.43879500
C        0.57981800      -2.05594600       3.02593200
N        0.09047700      -1.88075200       1.64482300
H        0.79720200      -2.17270700       0.93955600
H       -0.77866000      -2.39247300       1.42780900
H        1.49426700      -1.47551800       3.14531800
H       -0.17759400      -1.70221600       3.72515600
H        0.78842800      -3.11021200       3.20640000
H       -0.11570000      -0.88019400       1.42285800
C        4.28343700       2.53827900      -0.02735300
N        3.50211000       1.99723300      -1.16431600
H        3.59542500       0.95209300      -1.25587900
H        2.46138100       2.12761500      -1.03473100
H        5.33227000       2.26711900      -0.14681200
H        4.17266400       3.62226600       0.00415400
H        3.87805900       2.10692300       0.88644600
H        3.78027100       2.41571500      -2.04881100
C       -2.48954000       3.37604700      -0.88285800
N       -2.56316800       4.14799500       0.35762600
C       -3.36273600       2.12443800      -0.76066000
N       -3.08708100       1.49202100       0.55102700
H       -2.85340300       5.10426200       0.20747200
H       -1.66000300       4.13881300       0.82622500
H       -2.83918000       3.95537700      -1.74322000
H       -1.45567200       3.07719500      -1.08909300
H       -3.15688000       1.38300900      -1.53447300
H       -4.42477400       2.38191500      -0.78227900
H       -2.08439800       1.17445200       0.61129300
H       -3.65792800       0.64346300       0.70820600
H       -3.22856400       2.20693800       1.27138300
