38
1sa1fa2tma-1
S       -0.32586700      -0.88331500       0.62775600
O       -0.97950700      -0.08061900       1.65970600
O        0.41785300       0.02660600      -0.35732000
O        0.57661500      -1.94762000       1.07230700
O       -1.44542000      -1.58287300      -0.23908800
H       -2.27111700      -0.94420300      -0.32330100
H        1.41558900       4.18590300       0.42210400
H        0.33618700       1.59568900      -0.12437300
C        1.47039600       3.10052400       0.25644200
O        0.29403500       2.59981500      -0.02168100
O        2.51884800       2.48360400       0.32652400
N        2.96754800      -0.74077900      -0.47225500
C        2.93449700      -2.15722700      -0.91075100
H        2.31529200      -2.71499500      -0.20878200
H        2.48502700      -2.20491300      -1.90345500
H        3.95511800      -2.54689000      -0.94140400
C        3.69732200       0.12024800      -1.43195600
H        3.22389100       0.03021200      -2.41064600
H        3.63660600       1.15046200      -1.08200900
H        4.73742300      -0.20997500      -1.49089400
C        3.49475900      -0.60287000       0.91026800
H        3.43122900       0.44898000       1.18951600
H        2.86508400      -1.20423100       1.56662600
H        4.53087400      -0.95017700       0.93321800
H        1.95843300      -0.40415900      -0.43758400
N       -3.49518100       0.00755800      -0.41440400
C       -2.97345400       1.36142900      -0.61700400
H       -2.32652700       1.62625400       0.22133100
H       -2.37914700       1.38946300      -1.53404200
H       -3.78799000       2.09865100      -0.69528400
C       -4.34833800      -0.40694200      -1.52498800
H       -3.78533200      -0.34895100      -2.46014100
H       -4.66616500      -1.44200100      -1.37509000
H       -5.24300600       0.23030500      -1.61009100
C       -4.19157200      -0.09945700       0.86955500
H       -4.53830400      -1.12657600       1.00932200
H       -3.48926800       0.14150200       1.66992800
H       -5.05764900       0.57969500       0.91457700
38
1sa1fa2tma-2
S        0.14981900      -0.93921800      -0.56333400
O        0.58844300       0.21531900      -1.39972800
O       -0.42288300      -0.43825600       0.72938800
O       -0.75835000      -1.86524400      -1.24224700
O        1.44743200      -1.75554800      -0.20976200
H        2.22818900      -1.10278600       0.04415300
H       -0.74543100       4.05730600       0.34990300
H        0.29038200       1.66672300      -0.86540800
C       -0.83348600       3.04151800      -0.06312400
O        0.31775000       2.61772500      -0.51667800
O       -1.89016600       2.43739900      -0.07535600
N       -3.06456900      -0.51218700       0.44948300
C       -3.27416200      -1.95157400       0.74049800
H       -2.66113800      -2.52674700       0.04554100
H       -2.95045400      -2.15244900       1.76224800
H       -4.33431300      -2.19026100       0.62506100
C       -3.74138000       0.36478300       1.43157100
H       -3.37182300       0.12337300       2.42913400
H       -3.50100300       1.39998100       1.19006300
H       -4.81983100       0.19447900       1.38176800
C       -3.44609900      -0.18126700      -0.94889300
H       -3.20417300       0.86577100      -1.12601800
H       -2.85799400      -0.81490600      -1.61326300
H       -4.51641500      -0.36400600      -1.07505100
H       -2.01490100      -0.35538600       0.54468600
N        3.39498600      -0.16085100       0.40936600
C        2.87104500       0.84301100       1.33816300
H        2.08332800       1.41674100       0.84661100
H        2.43920100       0.34294500       2.20845400
H        3.66316300       1.53216600       1.67106600
C        4.44381200      -0.96484800       1.03311800
H        4.04656500      -1.44762700       1.92960900
H        4.77085900      -1.74122200       0.33692300
H        5.31377700      -0.35081800       1.31565300
C        3.85818600       0.45939400      -0.83372200
H        4.21608100      -0.31713000      -1.51427600
H        3.01818400       0.96860800      -1.30973900
H        4.67241300       1.17673300      -0.64631700
38
1sa1fa2tma-4
S       -0.18767400      -1.27604500       0.12031600
O        0.52232700      -0.17453500      -0.67997000
O       -1.04507800      -2.07654600      -0.74943400
O        0.80499700      -1.99372400       0.92463500
O       -1.10525600      -0.48451500       1.13236800
H       -2.01435500      -0.22158400       0.66137400
H        0.23911100       4.04940000       0.32164000
H        0.03126700       1.30747500      -0.47808100
C        0.61931600       3.03251400       0.14756000
O       -0.30555900       2.25612300      -0.35999200
O        1.76579100       2.71324400       0.40341200
N        3.13002600      -0.29997600      -0.14981900
C        3.52036100      -1.68464600      -0.51229800
H        2.91506700      -2.37113200       0.07907600
H        3.31261900      -1.83969500      -1.57178500
H        4.58670400      -1.81956100      -0.31494000
C        3.83250200       0.70917800      -0.97608000
H        3.62090700       0.50921200      -2.02743400
H        3.45874100       1.69568500      -0.70316000
H        4.90744600       0.63639400      -0.79323400
C        3.29897600      -0.04340800       1.30370300
H        2.95725500       0.97117100       1.50811200
H        2.68009000      -0.76189000       1.84163900
H        4.35437400      -0.15864500       1.56365600
H        2.08826200      -0.21329400      -0.35245200
N       -3.33911500       0.12539100      -0.00292000
C       -3.93791200       1.25227900       0.70919900
H       -4.07729100       0.98905600       1.76094400
H       -3.26466700       2.11111900       0.65089300
H       -4.91334100       1.53033400       0.28014800
C       -3.08006400       0.46139500      -1.40645000
H       -2.43118500       1.33900000      -1.45280200
H       -2.57104500      -0.37884200      -1.88314900
H       -4.01814900       0.67805300      -1.94112000
C       -4.15688000      -1.08473100       0.10366900
H       -3.62634100      -1.91082700      -0.37466100
H       -4.30441900      -1.32999200       1.15849800
H       -5.14021200      -0.94847400      -0.37303000
