1a_1w_tight.log
 OpenBabel02281909513D
Gaussian opt/gaussian/g09/g09 # opt=tight freq wb97xd/6-31++g(d,p) geom=connecti
  7  5  0  0  0  0  0  0  0  0999 V2000
   -0.0385   -1.3613    0.0000 N   0  0  0  0  0  0  0  0  0  0  0  0
    0.3553   -1.8090    0.8205 H   0  0  0  0  0  0  0  0  0  0  0  0
    0.3553   -1.8090   -0.8205 H   0  0  0  0  0  0  0  0  0  0  0  0
   -1.0376   -1.5398    0.0000 H   0  0  0  0  0  0  0  0  0  0  0  0
    0.0513    0.5582    0.0000 H   0  0  0  0  0  0  0  0  0  0  0  0
   -0.0385    1.5307    0.0000 O   0  0  0  0  0  0  0  0  0  0  0  0
    0.8536    1.8832    0.0000 H   0  0  0  0  0  0  0  0  0  0  0  0
  1  4  1  0  0  0  0
  1  2  1  0  0  0  0
  3  1  1  0  0  0  0
  5  6  1  0  0  0  0
  6  7  1  0  0  0  0
M  END
$$$$
