1sa_1a_1w.log
 OpenBabel02281909513D
Gaussian kemi/andersx/programs/g09/g09 # opt freq 6-31++g(d,p) wb97xd
 14 11  0  0  0  0  0  0  0  0999 V2000
   -0.9837    0.0120   -0.1310 S   0  0  0  0  0  0  0  0  0  0  0  0
   -0.3175    1.3128    0.2119 O   0  0  0  0  0  0  0  0  0  0  0  0
   -1.3234   -0.6671    1.3161 O   0  0  0  0  0  0  0  0  0  0  0  0
   -2.2499    0.1798   -0.8169 O   0  0  0  0  0  0  0  0  0  0  0  0
   -0.0171   -0.9329   -0.7123 O   0  0  0  0  0  0  0  0  0  0  0  0
    1.1441    1.3610    0.1308 H   0  0  0  0  0  0  0  0  0  0  0  0
   -2.1922   -0.3454    1.5908 H   0  0  0  0  0  0  0  0  0  0  0  0
    1.5579   -1.4039   -0.1783 H   0  0  0  0  0  0  0  0  0  0  0  0
    2.5092   -1.3241    0.0622 O   0  0  0  0  0  0  0  0  0  0  0  0
    2.9846   -2.0125   -0.4073 H   0  0  0  0  0  0  0  0  0  0  0  0
    2.6474    1.8287    0.8674 H   0  0  0  0  0  0  0  0  0  0  0  0
    2.2437    1.3708    0.0547 N   0  0  0  0  0  0  0  0  0  0  0  0
    2.5591    0.3723    0.0099 H   0  0  0  0  0  0  0  0  0  0  0  0
    2.5228    1.8642   -0.7889 H   0  0  0  0  0  0  0  0  0  0  0  0
  1  2  1  0  0  0  0
  1  3  1  0  0  0  0
  3  7  1  0  0  0  0
  4  1  2  0  0  0  0
  5  1  2  0  0  0  0
  8  9  1  0  0  0  0
 10  9  1  0  0  0  0
 12  6  1  0  0  0  0
 12 11  1  0  0  0  0
 13 12  1  0  0  0  0
 14 12  1  0  0  0  0
M  RAD  1   2   2
M  END
$$$$
