1sa_1a_5w.log
 OpenBabel02281909513D
Gaussian kemi/andersx/programs/g09/g09 # opt freq wb97xd/6-31++g(d,p) geom=conne
 26 19  0  0  0  0  0  0  0  0999 V2000
    1.0600   -1.1344    0.0593 S   0  0  0  0  0  0  0  0  0  0  0  0
   -0.1282   -0.9372   -0.8017 O   0  0  0  0  0  0  0  0  0  0  0  0
    1.2633   -2.7422   -0.0460 O   0  0  0  0  0  0  0  0  0  0  0  0
    0.7972   -0.8452    1.4813 O   0  0  0  0  0  0  0  0  0  0  0  0
    2.2915   -0.5277   -0.4553 O   0  0  0  0  0  0  0  0  0  0  0  0
    2.0785   -2.9760    0.4189 H   0  0  0  0  0  0  0  0  0  0  0  0
   -1.0517    1.2133    1.8726 N   0  0  0  0  0  0  0  0  0  0  0  0
   -0.4094    0.3988    1.8814 H   0  0  0  0  0  0  0  0  0  0  0  0
   -1.2529    1.5281    2.8164 H   0  0  0  0  0  0  0  0  0  0  0  0
   -1.9367    0.9495    1.3633 H   0  0  0  0  0  0  0  0  0  0  0  0
   -0.5841    1.9740    1.3058 H   0  0  0  0  0  0  0  0  0  0  0  0
   -2.6516   -1.9932   -0.3891 O   0  0  0  0  0  0  0  0  0  0  0  0
   -1.7023   -1.8294   -0.5390 H   0  0  0  0  0  0  0  0  0  0  0  0
   -2.7286   -2.8590    0.0167 H   0  0  0  0  0  0  0  0  0  0  0  0
   -1.2912    1.3439   -1.7597 O   0  0  0  0  0  0  0  0  0  0  0  0
   -1.3355    1.4012   -2.7174 H   0  0  0  0  0  0  0  0  0  0  0  0
   -0.7833    0.5336   -1.5472 H   0  0  0  0  0  0  0  0  0  0  0  0
    0.0528    2.9530    0.1294 O   0  0  0  0  0  0  0  0  0  0  0  0
   -0.3852    2.6484   -0.6836 H   0  0  0  0  0  0  0  0  0  0  0  0
    1.0119    2.8166   -0.0217 H   0  0  0  0  0  0  0  0  0  0  0  0
    2.6384    2.2203   -0.3781 O   0  0  0  0  0  0  0  0  0  0  0  0
    2.6133    1.2450   -0.4209 H   0  0  0  0  0  0  0  0  0  0  0  0
    3.4253    2.4561    0.1174 H   0  0  0  0  0  0  0  0  0  0  0  0
   -3.1696    0.6197    0.2693 O   0  0  0  0  0  0  0  0  0  0  0  0
   -3.2074   -0.3450    0.1145 H   0  0  0  0  0  0  0  0  0  0  0  0
   -2.8235    0.9847   -0.5620 H   0  0  0  0  0  0  0  0  0  0  0  0
  1  4  1  0  0  0  0
  2  1  2  0  0  0  0
  3  1  1  0  0  0  0
  3  6  1  0  0  0  0
  5  1  2  0  0  0  0
  7  8  1  0  0  0  0
  7  9  1  0  0  0  0
 10  7  1  0  0  0  0
 11  7  1  0  0  0  0
 12 14  1  0  0  0  0
 13 12  1  0  0  0  0
 15 17  1  0  0  0  0
 16 15  1  0  0  0  0
 19 18  1  0  0  0  0
 20 18  1  0  0  0  0
 21 23  1  0  0  0  0
 22 21  1  0  0  0  0
 25 24  1  0  0  0  0
 26 24  1  0  0  0  0
M  RAD  1   4   2
M  END
$$$$
