2sa_2a_4w.log
 OpenBabel02281909513D
Gaussian kemi/andersx/programs/g09/g09 # opt freq 6-31++g(d,p) wb97xd
 34 26  0  0  0  0  0  0  0  0999 V2000
   -2.3293    0.3290   -0.4610 S   0  0  0  0  0  0  0  0  0  0  0  0
   -1.6396    0.6624    0.8365 O   0  0  0  0  0  0  0  0  0  0  0  0
   -0.8477   -1.7148    1.9407 N   0  0  0  0  0  0  0  0  0  0  0  0
   -1.0861   -0.7277    1.6849 H   0  0  0  0  0  0  0  0  0  0  0  0
   -3.6298   -0.3074   -0.2556 O   0  0  0  0  0  0  0  0  0  0  0  0
   -1.4416   -0.8607   -1.0919 O   0  0  0  0  0  0  0  0  0  0  0  0
   -1.6566   -2.2935    1.6176 H   0  0  0  0  0  0  0  0  0  0  0  0
    0.2789    2.4344   -2.0766 O   0  0  0  0  0  0  0  0  0  0  0  0
    0.8000    1.6217   -1.9656 H   0  0  0  0  0  0  0  0  0  0  0  0
    1.8368   -0.4717    0.0964 S   0  0  0  0  0  0  0  0  0  0  0  0
    1.1614   -0.0947   -1.1743 O   0  0  0  0  0  0  0  0  0  0  0  0
    1.5317   -1.8822    0.4542 O   0  0  0  0  0  0  0  0  0  0  0  0
    1.5919    0.4679    1.1946 O   0  0  0  0  0  0  0  0  0  0  0  0
   -0.5021   -0.5709   -1.2037 H   0  0  0  0  0  0  0  0  0  0  0  0
   -2.2910    1.4685   -1.3802 O   0  0  0  0  0  0  0  0  0  0  0  0
    0.0277   -1.9574    1.4388 H   0  0  0  0  0  0  0  0  0  0  0  0
    0.0491    2.9235   -0.4704 H   0  0  0  0  0  0  0  0  0  0  0  0
   -0.6307    2.1210   -2.2177 H   0  0  0  0  0  0  0  0  0  0  0  0
    3.4047   -0.3889   -0.1748 O   0  0  0  0  0  0  0  0  0  0  0  0
    3.6568   -1.1739   -0.7261 H   0  0  0  0  0  0  0  0  0  0  0  0
    3.2334   -2.8635   -2.3077 H   0  0  0  0  0  0  0  0  0  0  0  0
    3.5098   -2.7866   -1.3903 O   0  0  0  0  0  0  0  0  0  0  0  0
    2.7340   -3.0030   -0.8498 H   0  0  0  0  0  0  0  0  0  0  0  0
   -3.2290   -2.7346    1.0037 O   0  0  0  0  0  0  0  0  0  0  0  0
   -3.3081   -3.4260    0.3417 H   0  0  0  0  0  0  0  0  0  0  0  0
   -3.5282   -1.9115    0.5602 H   0  0  0  0  0  0  0  0  0  0  0  0
    0.6635    3.1554    1.1096 H   0  0  0  0  0  0  0  0  0  0  0  0
   -0.1988    3.0220    0.5482 N   0  0  0  0  0  0  0  0  0  0  0  0
   -0.6808    2.1359    0.8101 H   0  0  0  0  0  0  0  0  0  0  0  0
   -0.7138   -1.8019    2.9436 H   0  0  0  0  0  0  0  0  0  0  0  0
    2.2084    2.9833    1.9812 O   0  0  0  0  0  0  0  0  0  0  0  0
    2.2861    2.0302    1.7892 H   0  0  0  0  0  0  0  0  0  0  0  0
    3.0556    3.3832    1.7717 H   0  0  0  0  0  0  0  0  0  0  0  0
   -0.8417    3.7990    0.6714 H   0  0  0  0  0  0  0  0  0  0  0  0
  1  5  2  0  0  0  0
  1  2  1  0  0  0  0
  3 30  1  0  0  0  0
  4  3  1  0  0  0  0
  6  1  1  0  0  0  0
  7  3  1  0  0  0  0
  8  9  1  0  0  0  0
 10 12  2  0  0  0  0
 10 13  1  0  0  0  0
 11 10  2  0  0  0  0
 14  6  1  0  0  0  0
 15  1  2  0  0  0  0
 16  3  1  0  0  0  0
 17 28  1  0  0  0  0
 18  8  1  0  0  0  0
 19 10  1  0  0  0  0
 20 19  1  0  0  0  0
 21 22  1  0  0  0  0
 22 23  1  0  0  0  0
 25 24  1  0  0  0  0
 26 24  1  0  0  0  0
 28 34  1  0  0  0  0
 28 29  1  0  0  0  0
 28 27  1  0  0  0  0
 32 31  1  0  0  0  0
 33 31  1  0  0  0  0
M  RAD  2   2   2  13   2
M  END
$$$$
