2sa_1a_1w.log
 OpenBabel02281909513D
Gaussian kemi/andersx/programs/g09/g09 # opt freq 6-31++g(d,p) wb97xd
 21 17  0  0  0  0  0  0  0  0999 V2000
    2.2631   -0.0195   -0.0314 S   0  0  0  0  0  0  0  0  0  0  0  0
    2.0467   -1.5370    0.3327 O   0  0  0  0  0  0  0  0  0  0  0  0
    1.5215    0.7875    0.9416 O   0  0  0  0  0  0  0  0  0  0  0  0
    1.5610    0.1455   -1.4383 O   0  0  0  0  0  0  0  0  0  0  0  0
    3.6661    0.1971   -0.2111 O   0  0  0  0  0  0  0  0  0  0  0  0
    1.0797   -1.7289    0.4648 H   0  0  0  0  0  0  0  0  0  0  0  0
    0.5723    0.0922   -1.3461 H   0  0  0  0  0  0  0  0  0  0  0  0
   -1.5825   -0.8728    0.0762 S   0  0  0  0  0  0  0  0  0  0  0  0
   -0.6033   -1.8914    0.4788 O   0  0  0  0  0  0  0  0  0  0  0  0
   -2.7708   -1.6474   -0.6893 O   0  0  0  0  0  0  0  0  0  0  0  0
   -1.0756    0.0399   -0.9823 O   0  0  0  0  0  0  0  0  0  0  0  0
   -2.2009   -0.1512    1.1997 O   0  0  0  0  0  0  0  0  0  0  0  0
   -3.1340   -2.3231   -0.0992 H   0  0  0  0  0  0  0  0  0  0  0  0
   -0.7801    2.2146    1.3857 N   0  0  0  0  0  0  0  0  0  0  0  0
    0.1641    1.8279    1.1889 H   0  0  0  0  0  0  0  0  0  0  0  0
   -1.1495    2.6698    0.5249 H   0  0  0  0  0  0  0  0  0  0  0  0
   -1.3949    1.3971    1.5733 H   0  0  0  0  0  0  0  0  0  0  0  0
   -1.7256    2.7032   -1.1296 O   0  0  0  0  0  0  0  0  0  0  0  0
   -1.6827    1.7494   -1.3281 H   0  0  0  0  0  0  0  0  0  0  0  0
   -2.4873    3.0664   -1.5862 H   0  0  0  0  0  0  0  0  0  0  0  0
   -0.7503    2.8546    2.1736 H   0  0  0  0  0  0  0  0  0  0  0  0
  1  2  1  0  0  0  0
  1  3  2  0  0  0  0
  2  6  1  0  0  0  0
  4  7  1  0  0  0  0
  4  1  1  0  0  0  0
  5  1  2  0  0  0  0
  8  9  2  0  0  0  0
  8 12  1  0  0  0  0
 10 13  1  0  0  0  0
 10  8  1  0  0  0  0
 11  8  2  0  0  0  0
 14 17  1  0  0  0  0
 14 21  1  0  0  0  0
 15 14  1  0  0  0  0
 16 14  1  0  0  0  0
 19 18  1  0  0  0  0
 20 18  1  0  0  0  0
M  RAD  1  12   2
M  END
$$$$
