2sa_1a_2w.log
 OpenBabel02281909513D
Gaussian kemi/andersx/programs/g09/g09 # opt freq 6-31++g(d,p) wb97xd
 24 18  0  0  0  0  0  0  0  0999 V2000
   -2.4725   -0.1717   -0.1533 S   0  0  0  0  0  0  0  0  0  0  0  0
   -2.3578    1.0927   -0.8873 O   0  0  0  0  0  0  0  0  0  0  0  0
   -4.0481   -0.3926    0.1169 O   0  0  0  0  0  0  0  0  0  0  0  0
   -2.0888   -1.3884   -0.8828 O   0  0  0  0  0  0  0  0  0  0  0  0
   -4.4510    0.4666    0.3036 H   0  0  0  0  0  0  0  0  0  0  0  0
    2.4670   -0.1483   -0.1574 S   0  0  0  0  0  0  0  0  0  0  0  0
    2.2556    1.0595   -0.9601 O   0  0  0  0  0  0  0  0  0  0  0  0
    1.7095   -0.1706    1.1230 O   0  0  0  0  0  0  0  0  0  0  0  0
    3.9981   -0.0931    0.3566 O   0  0  0  0  0  0  0  0  0  0  0  0
    2.3088   -1.4132   -0.8978 O   0  0  0  0  0  0  0  0  0  0  0  0
    0.9337   -2.2906   -0.2885 H   0  0  0  0  0  0  0  0  0  0  0  0
   -1.8217   -0.1161    1.1886 O   0  0  0  0  0  0  0  0  0  0  0  0
   -0.0301    1.6887    1.5825 O   0  0  0  0  0  0  0  0  0  0  0  0
    0.0911   -2.4777    0.2997 N   0  0  0  0  0  0  0  0  0  0  0  0
   -0.0354    2.6112   -0.7113 O   0  0  0  0  0  0  0  0  0  0  0  0
    0.1989   -1.8818    1.1252 H   0  0  0  0  0  0  0  0  0  0  0  0
   -0.7772   -2.1648   -0.2044 H   0  0  0  0  0  0  0  0  0  0  0  0
    4.5705    0.0879   -0.4022 H   0  0  0  0  0  0  0  0  0  0  0  0
   -0.8277    2.1794   -1.0822 H   0  0  0  0  0  0  0  0  0  0  0  0
    0.7468    2.1718   -1.0943 H   0  0  0  0  0  0  0  0  0  0  0  0
   -0.8213    1.0633    1.5367 H   0  0  0  0  0  0  0  0  0  0  0  0
   -0.0302    2.1954    0.6465 H   0  0  0  0  0  0  0  0  0  0  0  0
    0.7583    1.0688    1.5367 H   0  0  0  0  0  0  0  0  0  0  0  0
    0.0288   -3.4555    0.5680 H   0  0  0  0  0  0  0  0  0  0  0  0
  1  3  1  0  0  0  0
  1 12  1  0  0  0  0
  2  1  2  0  0  0  0
  3  5  1  0  0  0  0
  4  1  2  0  0  0  0
  6  9  1  0  0  0  0
  6  8  1  0  0  0  0
  7  6  2  0  0  0  0
 10  6  2  0  0  0  0
 11 14  1  0  0  0  0
 14 24  1  0  0  0  0
 14 16  1  0  0  0  0
 17 14  1  0  0  0  0
 18  9  1  0  0  0  0
 19 15  1  0  0  0  0
 20 15  1  0  0  0  0
 21 13  1  0  0  0  0
 23 13  1  0  0  0  0
M  RAD  3   8   2  12   2  22   2
M  END
$$$$
