3sa_2a_1w.log
 OpenBabel02281909513D
Gaussian kemi/andersx/programs/g09/g09 # opt freq 6-31++g(d,p) wb97xd
 32 26  0  0  0  0  0  0  0  0999 V2000
    2.5496   -1.2659   -0.1450 S   0  0  0  0  0  0  0  0  0  0  0  0
    3.9012   -1.6533    0.2351 O   0  0  0  0  0  0  0  0  0  0  0  0
    1.9682   -0.5809    1.1896 O   0  0  0  0  0  0  0  0  0  0  0  0
    2.5409   -0.1632   -1.1759 O   0  0  0  0  0  0  0  0  0  0  0  0
    1.0376   -0.2812    1.0253 H   0  0  0  0  0  0  0  0  0  0  0  0
   -0.3458    1.4740   -0.5194 S   0  0  0  0  0  0  0  0  0  0  0  0
   -1.6657    1.9757   -0.8883 O   0  0  0  0  0  0  0  0  0  0  0  0
    0.2237    0.8292   -1.8855 O   0  0  0  0  0  0  0  0  0  0  0  0
    0.6321    2.4638   -0.0670 O   0  0  0  0  0  0  0  0  0  0  0  0
    1.1468    0.4786   -1.7053 H   0  0  0  0  0  0  0  0  0  0  0  0
   -3.7834   -0.4216    0.5940 S   0  0  0  0  0  0  0  0  0  0  0  0
   -2.7006   -0.2207    1.7298 O   0  0  0  0  0  0  0  0  0  0  0  0
   -3.1779   -1.2376   -0.4621 O   0  0  0  0  0  0  0  0  0  0  0  0
   -4.0152    1.0308    0.0248 O   0  0  0  0  0  0  0  0  0  0  0  0
   -5.0016   -0.8495    1.2090 O   0  0  0  0  0  0  0  0  0  0  0  0
    2.4305    2.3262    0.4360 H   0  0  0  0  0  0  0  0  0  0  0  0
    1.6302   -2.3459   -0.5297 O   0  0  0  0  0  0  0  0  0  0  0  0
   -0.8205   -1.8603   -1.6887 N   0  0  0  0  0  0  0  0  0  0  0  0
    3.3978    2.0518    0.2027 N   0  0  0  0  0  0  0  0  0  0  0  0
    3.9189    2.8515   -0.1458 H   0  0  0  0  0  0  0  0  0  0  0  0
    3.9022    1.5912    0.9976 H   0  0  0  0  0  0  0  0  0  0  0  0
    3.2891    1.3197   -0.5288 H   0  0  0  0  0  0  0  0  0  0  0  0
   -3.1843    1.3976   -0.3761 H   0  0  0  0  0  0  0  0  0  0  0  0
   -1.8161   -0.0220    1.3225 H   0  0  0  0  0  0  0  0  0  0  0  0
    0.0389   -2.1221   -1.1551 H   0  0  0  0  0  0  0  0  0  0  0  0
   -1.0388   -2.5726   -2.3807 H   0  0  0  0  0  0  0  0  0  0  0  0
   -0.6218   -0.9605   -2.1434 H   0  0  0  0  0  0  0  0  0  0  0  0
   -1.6399   -1.7077   -1.0664 H   0  0  0  0  0  0  0  0  0  0  0  0
   -0.4331    0.3012    0.4241 O   0  0  0  0  0  0  0  0  0  0  0  0
    4.8896    0.4399    1.8356 O   0  0  0  0  0  0  0  0  0  0  0  0
    4.7274    0.2585    2.7652 H   0  0  0  0  0  0  0  0  0  0  0  0
    4.7079   -0.3986    1.3667 H   0  0  0  0  0  0  0  0  0  0  0  0
  1  2  1  0  0  0  0
  1  3  1  0  0  0  0
  4  1  2  0  0  0  0
  5  3  1  0  0  0  0
  6  9  2  0  0  0  0
  6 29  1  0  0  0  0
  7  6  2  0  0  0  0
  8 10  1  0  0  0  0
  8  6  1  0  0  0  0
 11 15  2  0  0  0  0
 11 12  1  0  0  0  0
 13 11  2  0  0  0  0
 14 11  1  0  0  0  0
 17  1  2  0  0  0  0
 18 25  1  0  0  0  0
 18 28  1  0  0  0  0
 19 16  1  0  0  0  0
 19 21  1  0  0  0  0
 20 19  1  0  0  0  0
 22 19  1  0  0  0  0
 23 14  1  0  0  0  0
 24 12  1  0  0  0  0
 26 18  1  0  0  0  0
 27 18  1  0  0  0  0
 30 31  1  0  0  0  0
 32 30  1  0  0  0  0
M  RAD  2   2   2  29   2
M  END
$$$$
