3sa_1a_1w.log
 OpenBabel02281909513D
Gaussian kemi/andersx/programs/g09/g09 # opt freq 6-31++g(d,p) wb97xd
 28 22  0  0  0  0  0  0  0  0999 V2000
    2.8219   -0.8011   -0.0473 S   0  0  0  0  0  0  0  0  0  0  0  0
    2.1883   -1.6983    0.9222 O   0  0  0  0  0  0  0  0  0  0  0  0
    2.4703   -1.0647   -1.4620 O   0  0  0  0  0  0  0  0  0  0  0  0
    2.6859    0.6360    0.2953 O   0  0  0  0  0  0  0  0  0  0  0  0
    4.3804   -1.1521    0.0808 O   0  0  0  0  0  0  0  0  0  0  0  0
   -4.5219   -1.8527   -0.2221 H   0  0  0  0  0  0  0  0  0  0  0  0
    1.1129   -0.6438   -1.9936 H   0  0  0  0  0  0  0  0  0  0  0  0
   -2.4832   -1.2587   -0.0684 S   0  0  0  0  0  0  0  0  0  0  0  0
   -2.8272    0.1194   -0.4773 O   0  0  0  0  0  0  0  0  0  0  0  0
   -1.3160   -1.8103   -0.7805 O   0  0  0  0  0  0  0  0  0  0  0  0
   -2.4008   -1.4259    1.3937 O   0  0  0  0  0  0  0  0  0  0  0  0
   -3.6880   -2.1864   -0.5829 O   0  0  0  0  0  0  0  0  0  0  0  0
   -0.8728   -1.2798    2.1061 H   0  0  0  0  0  0  0  0  0  0  0  0
   -0.3727    2.4877    0.0117 S   0  0  0  0  0  0  0  0  0  0  0  0
   -1.8434    2.2968    0.4874 O   0  0  0  0  0  0  0  0  0  0  0  0
    0.3445    1.3846    0.9181 O   0  0  0  0  0  0  0  0  0  0  0  0
   -0.2253    2.0514   -1.3799 O   0  0  0  0  0  0  0  0  0  0  0  0
    0.0621    3.8056    0.3673 O   0  0  0  0  0  0  0  0  0  0  0  0
   -2.2507    1.4475    0.1221 H   0  0  0  0  0  0  0  0  0  0  0  0
    1.3033    1.2001    0.6275 H   0  0  0  0  0  0  0  0  0  0  0  0
    4.8686   -0.6813   -0.6100 H   0  0  0  0  0  0  0  0  0  0  0  0
    0.1643   -0.3739   -2.2600 O   0  0  0  0  0  0  0  0  0  0  0  0
    0.0015    0.5746   -1.9846 H   0  0  0  0  0  0  0  0  0  0  0  0
   -0.4850   -0.9670   -1.7487 H   0  0  0  0  0  0  0  0  0  0  0  0
    0.0510   -0.9663    2.4881 N   0  0  0  0  0  0  0  0  0  0  0  0
    0.8359   -1.3340    1.9032 H   0  0  0  0  0  0  0  0  0  0  0  0
    0.0711    0.0559    2.4148 H   0  0  0  0  0  0  0  0  0  0  0  0
    0.1622   -1.2614    3.4545 H   0  0  0  0  0  0  0  0  0  0  0  0
  1  5  1  0  0  0  0
  1  4  2  0  0  0  0
  1  2  1  0  0  0  0
  3  1  2  0  0  0  0
  8 11  1  0  0  0  0
  9  8  2  0  0  0  0
 10  8  2  0  0  0  0
 12  6  1  0  0  0  0
 12  8  1  0  0  0  0
 13 25  1  0  0  0  0
 14 18  2  0  0  0  0
 14 15  1  0  0  0  0
 14 16  1  0  0  0  0
 17 14  2  0  0  0  0
 19 15  1  0  0  0  0
 20 16  1  0  0  0  0
 21  5  1  0  0  0  0
 22 23  1  0  0  0  0
 22 24  1  0  0  0  0
 25 28  1  0  0  0  0
 26 25  1  0  0  0  0
 27 25  1  0  0  0  0
M  RAD  3   2   2   7   2  11   2
M  END
$$$$
