3sa_2a_4w.log
 OpenBabel02281909513D
Gaussian kemi/andersx/programs/g09/g09 # opt freq 6-31++g(d,p) wb97xd
 41 31  0  0  0  0  0  0  0  0999 V2000
    2.8072   -0.6565   -0.2360 S   0  0  0  0  0  0  0  0  0  0  0  0
    3.1200   -0.1944    1.1405 O   0  0  0  0  0  0  0  0  0  0  0  0
    3.4865    0.3295   -1.2557 O   0  0  0  0  0  0  0  0  0  0  0  0
    3.3292   -1.9928   -0.5537 O   0  0  0  0  0  0  0  0  0  0  0  0
    3.0964    1.2610   -1.1210 H   0  0  0  0  0  0  0  0  0  0  0  0
   -1.6886    2.4728   -0.2458 S   0  0  0  0  0  0  0  0  0  0  0  0
   -1.9531    1.8090   -1.5499 O   0  0  0  0  0  0  0  0  0  0  0  0
   -2.1423    4.0062   -0.4625 O   0  0  0  0  0  0  0  0  0  0  0  0
   -2.5116    2.0166    0.8646 O   0  0  0  0  0  0  0  0  0  0  0  0
   -1.7365    4.3431   -1.2735 H   0  0  0  0  0  0  0  0  0  0  0  0
   -1.6061   -2.2766    0.4173 S   0  0  0  0  0  0  0  0  0  0  0  0
   -1.3031   -2.3378   -1.0649 O   0  0  0  0  0  0  0  0  0  0  0  0
   -0.8871   -3.3424    1.1225 O   0  0  0  0  0  0  0  0  0  0  0  0
   -3.1425   -2.5797    0.5747 O   0  0  0  0  0  0  0  0  0  0  0  0
   -1.3989   -0.9124    0.9338 O   0  0  0  0  0  0  0  0  0  0  0  0
   -3.6045    0.4685    0.6548 H   0  0  0  0  0  0  0  0  0  0  0  0
    1.3318   -0.5761   -0.4500 O   0  0  0  0  0  0  0  0  0  0  0  0
   -0.5240   -0.2116   -2.1206 O   0  0  0  0  0  0  0  0  0  0  0  0
   -4.2535   -0.2134    0.3977 O   0  0  0  0  0  0  0  0  0  0  0  0
    0.5197    0.6674    2.0252 N   0  0  0  0  0  0  0  0  0  0  0  0
    1.1613   -3.6968   -0.7030 N   0  0  0  0  0  0  0  0  0  0  0  0
    0.3276    1.4712    1.3993 H   0  0  0  0  0  0  0  0  0  0  0  0
   -0.1433   -0.0796    1.7279 H   0  0  0  0  0  0  0  0  0  0  0  0
    1.4899    0.3460    1.8740 H   0  0  0  0  0  0  0  0  0  0  0  0
   -4.6453    0.0975   -0.4227 H   0  0  0  0  0  0  0  0  0  0  0  0
   -3.6421   -1.7081    0.4943 H   0  0  0  0  0  0  0  0  0  0  0  0
    2.0271   -3.1076   -0.6491 H   0  0  0  0  0  0  0  0  0  0  0  0
    0.4418   -3.2179   -1.2666 H   0  0  0  0  0  0  0  0  0  0  0  0
    0.6988   -3.7749    0.2208 H   0  0  0  0  0  0  0  0  0  0  0  0
    0.3210   -0.1786   -1.5740 H   0  0  0  0  0  0  0  0  0  0  0  0
   -1.0926    0.6080   -1.9144 H   0  0  0  0  0  0  0  0  0  0  0  0
   -0.9815   -1.0535   -1.7417 H   0  0  0  0  0  0  0  0  0  0  0  0
   -0.2347    2.5036    0.0537 O   0  0  0  0  0  0  0  0  0  0  0  0
    2.4596    2.6434   -0.7399 O   0  0  0  0  0  0  0  0  0  0  0  0
    1.4896    2.6626   -0.6855 H   0  0  0  0  0  0  0  0  0  0  0  0
    2.7744    2.8428    0.1631 H   0  0  0  0  0  0  0  0  0  0  0  0
    0.3651    0.9340    2.9929 H   0  0  0  0  0  0  0  0  0  0  0  0
    3.3480    2.4222    1.8636 O   0  0  0  0  0  0  0  0  0  0  0  0
    3.5636    1.4877    1.6857 H   0  0  0  0  0  0  0  0  0  0  0  0
    4.1205    2.8258    2.2658 H   0  0  0  0  0  0  0  0  0  0  0  0
    1.3661   -4.6166   -1.0834 H   0  0  0  0  0  0  0  0  0  0  0  0
  1  2  1  0  0  0  0
  3  5  1  0  0  0  0
  3  1  1  0  0  0  0
  4  1  2  0  0  0  0
  6 33  2  0  0  0  0
  6  9  1  0  0  0  0
  7  6  2  0  0  0  0
  8  6  1  0  0  0  0
 10  8  1  0  0  0  0
 11 14  1  0  0  0  0
 11 15  2  0  0  0  0
 11 13  1  0  0  0  0
 12 11  2  0  0  0  0
 17  1  2  0  0  0  0
 18 31  1  0  0  0  0
 18 30  1  0  0  0  0
 19 16  1  0  0  0  0
 20 37  1  0  0  0  0
 21 27  1  0  0  0  0
 21 29  1  0  0  0  0
 22 20  1  0  0  0  0
 23 20  1  0  0  0  0
 24 20  1  0  0  0  0
 25 19  1  0  0  0  0
 26 14  1  0  0  0  0
 28 21  1  0  0  0  0
 34 35  1  0  0  0  0
 34 36  1  0  0  0  0
 38 40  1  0  0  0  0
 39 38  1  0  0  0  0
 41 21  1  0  0  0  0
M  RAD  4   2   2   9   2  13   2  32   2
M  END
$$$$
