3sa_2a_2w.log
 OpenBabel02281909513D
Gaussian kemi/andersx/programs/g09/g09 # opt freq 6-31++g(d,p) wb97xd
 35 28  0  0  0  0  0  0  0  0999 V2000
    2.6155   -1.5721    0.0172 S   0  0  0  0  0  0  0  0  0  0  0  0
    2.5989   -1.5024   -1.4570 O   0  0  0  0  0  0  0  0  0  0  0  0
    3.7955   -2.6092    0.4081 O   0  0  0  0  0  0  0  0  0  0  0  0
    3.0264   -0.3455    0.7094 O   0  0  0  0  0  0  0  0  0  0  0  0
    3.6557   -3.4345   -0.0759 H   0  0  0  0  0  0  0  0  0  0  0  0
   -2.8720   -1.1733    0.0150 S   0  0  0  0  0  0  0  0  0  0  0  0
   -2.7754   -0.3234    1.2338 O   0  0  0  0  0  0  0  0  0  0  0  0
   -4.2743   -1.9696    0.1401 O   0  0  0  0  0  0  0  0  0  0  0  0
   -3.0234   -0.4168   -1.2297 O   0  0  0  0  0  0  0  0  0  0  0  0
   -4.2350   -2.5529    0.9104 H   0  0  0  0  0  0  0  0  0  0  0  0
    0.2204    2.3298   -0.0136 S   0  0  0  0  0  0  0  0  0  0  0  0
    0.5723    2.2643    1.4061 O   0  0  0  0  0  0  0  0  0  0  0  0
    1.3532    3.0072   -0.8208 O   0  0  0  0  0  0  0  0  0  0  0  0
   -0.9202    3.3409   -0.2753 O   0  0  0  0  0  0  0  0  0  0  0  0
   -0.1388    1.0255   -0.5784 O   0  0  0  0  0  0  0  0  0  0  0  0
   -3.1725    1.4738   -0.8308 H   0  0  0  0  0  0  0  0  0  0  0  0
    1.3563   -2.1414    0.5481 O   0  0  0  0  0  0  0  0  0  0  0  0
   -0.1014   -0.4241    2.1336 N   0  0  0  0  0  0  0  0  0  0  0  0
   -3.1292    2.1637   -0.1426 O   0  0  0  0  0  0  0  0  0  0  0  0
   -0.1126   -1.3070   -2.0396 N   0  0  0  0  0  0  0  0  0  0  0  0
    3.6042    2.1097   -0.1743 O   0  0  0  0  0  0  0  0  0  0  0  0
   -0.6096   -1.8381   -1.2957 H   0  0  0  0  0  0  0  0  0  0  0  0
   -0.2438   -0.3111   -1.8097 H   0  0  0  0  0  0  0  0  0  0  0  0
    0.9088   -1.5014   -2.0001 H   0  0  0  0  0  0  0  0  0  0  0  0
   -3.1835    1.6314    0.6678 H   0  0  0  0  0  0  0  0  0  0  0  0
   -1.8514    2.8707   -0.2196 H   0  0  0  0  0  0  0  0  0  0  0  0
    3.5039    1.1633    0.0803 H   0  0  0  0  0  0  0  0  0  0  0  0
    4.0177    2.5507    0.5735 H   0  0  0  0  0  0  0  0  0  0  0  0
    2.2894    2.6502   -0.5417 H   0  0  0  0  0  0  0  0  0  0  0  0
    0.4120   -1.1084    1.5316 H   0  0  0  0  0  0  0  0  0  0  0  0
   -1.1048   -0.4079    1.8596 H   0  0  0  0  0  0  0  0  0  0  0  0
    0.2936    0.5201    1.9845 H   0  0  0  0  0  0  0  0  0  0  0  0
   -1.8059   -2.1941   -0.0116 O   0  0  0  0  0  0  0  0  0  0  0  0
   -0.5169   -1.5185   -2.9470 H   0  0  0  0  0  0  0  0  0  0  0  0
   -0.0063   -0.6924    3.1090 H   0  0  0  0  0  0  0  0  0  0  0  0
  1  3  1  0  0  0  0
  1 17  2  0  0  0  0
  1  4  1  0  0  0  0
  2  1  2  0  0  0  0
  5  3  1  0  0  0  0
  6  8  1  0  0  0  0
  6  7  1  0  0  0  0
  8 10  1  0  0  0  0
  9  6  2  0  0  0  0
 11 12  2  0  0  0  0
 13 29  1  0  0  0  0
 13 11  1  0  0  0  0
 14 26  1  0  0  0  0
 14 11  1  0  0  0  0
 15 11  2  0  0  0  0
 16 19  1  0  0  0  0
 18 35  1  0  0  0  0
 19 25  1  0  0  0  0
 20 24  1  0  0  0  0
 20 23  1  0  0  0  0
 20 22  1  0  0  0  0
 21 27  1  0  0  0  0
 21 28  1  0  0  0  0
 30 18  1  0  0  0  0
 31 18  1  0  0  0  0
 32 18  1  0  0  0  0
 33  6  2  0  0  0  0
 34 20  1  0  0  0  0
M  RAD  2   4   2   7   2
M  END
$$$$
