59
3sa2ma2eda-3
S        3.07725600       1.20570600       0.11632600
O        4.27391600       0.33723100       0.06987800
O        3.35854700       2.63281600      -0.11578000
O        2.16861900       0.79493600      -1.14002500
O        2.24883300       0.98735100       1.32323900
H       -0.88740900      -0.02386900      -0.67962100
H        1.51814900       0.05352500      -0.92137800
S        0.58073600      -2.46432900      -0.77701000
O        0.35672900      -0.94620500      -0.63540800
O        1.06040800      -2.94448300       0.55825900
O       -0.70619900      -3.09830400      -1.16865200
O        1.62086200      -2.68378800      -1.82238400
H        3.10001200      -2.29902900      -1.42425700
S       -2.08856300       1.03087000       0.80850500
O       -0.98094500       1.81380300       1.39653200
O       -3.34798200       1.74019200       0.63548400
O       -1.64841900       0.64212400      -0.68839800
O       -2.21248000      -0.28256500       1.52605100
N        4.08079000      -2.13252600      -1.03861500
H        4.13175700      -1.15833300      -0.65078500
H        4.75151700      -2.19886400      -1.80037100
C        4.34644900      -3.12737500       0.02628200
H        3.50427400      -3.09779300       0.71798300
H        4.40145400      -4.12243800      -0.41515800
H        5.27823000      -2.88222400       0.53615900
C        0.80986100      -0.96796100       3.71051300
N        0.48539200      -0.87687000       2.27683700
H        1.04488700      -0.12674500       1.82493900
H        0.70775700      -1.74900400       1.74504500
H        0.54905300      -0.02749400       4.19566800
H        0.24814900      -1.78559200       4.16315500
H        1.87902500      -1.14800400       3.82227300
H       -0.51296500      -0.66428800       2.11538900
C       -1.21570300       4.06188900      -1.38712700
N       -1.14663800       5.39609900      -0.78536000
C        0.17404700       3.43393400      -1.36913200
N        0.70843700       3.51205600       0.01414200
H       -0.90047500       6.10729900      -1.46476400
H        0.49089800       4.45214700       0.36393600
H       -1.89882200       3.44858500      -0.79383200
H       -1.59044000       4.05736100      -2.41805300
H        0.86823700       3.97294700      -2.01916600
H        0.15436900       2.38679800      -1.66936600
H        1.73356000       3.32433100       0.04088400
H        0.21177700       2.82367400       0.61703400
H       -2.02860200       5.66045000      -0.36427300
C       -3.83484900      -1.66353700      -1.23920000
N       -3.03115300      -2.29467100      -0.16489400
C       -5.13986600      -1.15163800      -0.64177100
N       -5.81441800      -2.24887700       0.05651600
H       -2.12772500      -2.70294100      -0.53521800
H       -3.61349500      -2.99523100       0.29903800
H       -3.24593900      -0.84906600      -1.66217500
H       -4.01055700      -2.41942500      -2.00954800
H       -5.73982900      -0.69642400      -1.44009800
H       -4.90916900      -0.35897600       0.07717700
H       -6.38729100      -2.79914800      -0.57402400
H       -6.41544500      -1.90648900       0.79592800
H       -2.76745000      -1.57492500       0.54421700
59
3sa2ma2eda-9
S       -3.99121500      -0.81653600      -0.18787900
O       -3.40427700      -1.97268300       0.51158500
O       -4.55168700       0.19906900       0.72495300
O       -3.13902900      -0.23933900      -1.24318500
O       -5.24117900      -1.40926100      -1.03884000
H       -5.80941800      -1.90366600      -0.43265200
S        2.09924500      -2.82718700      -0.27779800
O        2.50752600      -1.93412900      -1.39763400
O        0.59662500      -2.87975300      -0.22870900
O        2.75080600      -4.11549300      -0.22352400
O        2.53076200      -2.07648200       1.07700900
H        2.10899700      -1.17336300       1.15502600
S        0.71474000       1.26908100       0.79548900
O       -0.69065700       0.67966500       0.86528500
O        0.73789500       2.63231700       1.34576500
O        1.63645600       0.33863800       1.52275100
O        1.09760600       1.27766800      -0.68001500
C       -0.24581200      -1.10772900      -3.20213900
N       -0.43758100      -0.81924300      -1.76715400
H        0.12816100      -0.00410000      -1.45463700
H       -1.42910100      -0.62909500      -1.53583200
H        0.80028600      -1.36875600      -3.36255700
H       -0.88095500      -1.94685600      -3.48511600
H       -0.51710400      -0.23011200      -3.78935200
H       -0.11096800      -1.62862000      -1.19912900
C       -0.54496700      -2.12938500       3.21279300
N       -0.91894500      -1.86689000       1.80970000
H       -0.78560800      -0.86094400       1.55537100
H       -0.32625700      -2.40498700       1.14420200
H       -1.17677600      -1.53442100       3.87210600
H       -0.67261300      -3.18931500       3.43170700
H        0.49862900      -1.84719100       3.34994400
H       -1.90381400      -2.07298800       1.58260200
C       -2.76517700       2.99343000      -0.76885600
N       -2.78065200       2.34093600       0.56172400
C       -1.48970300       3.83354600      -0.87575300
N       -1.30880100       4.61142100       0.35037600
H       -3.61433500       1.74366300       0.70360300
H       -2.69801000       3.07850600       1.26739500
H       -2.81955100       2.20620300      -1.52242400
H       -3.65779400       3.62072400      -0.83693200
H       -1.57593100       4.47749500      -1.75672200
H       -0.63304400       3.17018400      -1.04034600
H       -1.22337700       5.60305200       0.17519200
H       -0.48350500       4.28514200       0.84923800
H       -1.94503300       1.70621100       0.67404100
C        4.49247000       0.71252100       0.23825000
N        3.66609600       0.46834400      -0.96827500
C        4.67723300       2.21573100       0.39581500
N        5.23907700       2.76666000      -0.84054700
H        3.49073300      -0.54098800      -1.16135400
H        4.11081400       0.93846500      -1.75969100
H        3.97188100       0.28850900       1.09563300
H        5.44855300       0.19967500       0.10122100
H        5.28825700       2.40655700       1.28696600
H        3.69739900       2.67116800       0.57293300
H        6.25093000       2.69709300      -0.85361100
H        4.99970700       3.74375300      -0.95593300
H        2.69913300       0.87427000      -0.85283500
59
3sa2ma2eda-5
S       -2.38149800      -2.31162200       0.07423600
O       -2.78305600      -1.26909500       1.06426000
O       -0.92276600      -2.61588800       0.26316400
O       -3.23591600      -3.47512100       0.00570800
O       -2.48047600      -1.61959500      -1.37031200
H       -2.03772700      -0.71886400      -1.39344100
S        3.89415400      -1.28267900       0.41430900
O        3.18151900      -2.37796900      -0.26690100
O        4.64930200      -0.41389300      -0.50976100
O        3.08029600      -0.53107500       1.38615400
O        4.99363000      -2.00282700       1.36816400
H        5.52551000      -2.59448700       0.81880200
S       -0.36677600       1.50921000      -0.92096100
O        0.86062300       0.59874700      -0.89999000
O       -1.48340000       0.77610800      -1.60191800
O       -0.75411700       1.72627200       0.53703600
O       -0.04228800       2.78314300      -1.57629600
C        0.52354700      -2.30911000      -3.14393100
N        0.83437500      -1.98187200      -1.73927400
H        0.15062300      -2.40641900      -1.08056200
H        1.77528900      -2.27318400      -1.42938100
H       -0.49096700      -1.97530100      -3.36065200
H        1.23025400      -1.79954500      -3.79874500
H        0.59307100      -3.38690300      -3.29000300
H        0.78945200      -0.95257800      -1.55363500
C       -0.04778100      -0.80126300       3.17003500
N        0.28910800      -0.60040700       1.74764100
H       -0.12332200      -1.36907700       1.18015100
H       -0.10274600       0.28987500       1.37585800
H        0.41370100      -1.72443300       3.51988100
H        0.32569700       0.03924600       3.75538900
H       -1.13153600      -0.87760400       3.25981600
H        1.31182300      -0.59069400       1.58437300
C       -5.80268600       1.03593200       0.95923800
N       -6.07546900       1.33460200      -0.44366600
C       -4.49153200       1.70603700       1.36500600
N       -3.43503100       1.25462100       0.44102900
H       -6.60178900       2.19239500      -0.56042700
H       -6.57982300       0.58831000      -0.90466300
H       -6.59612300       1.35328400       1.64825600
H       -5.68691200      -0.04684200       1.07006900
H       -4.20358300       1.43227900       2.38215600
H       -4.56740500       2.79503400       1.30057400
H       -3.24453900       0.23199600       0.58235300
H       -2.49713000       1.69772800       0.56069600
H       -3.74399800       1.38375600      -0.52719300
C        2.17194900       3.76238700       0.69373500
N        2.20429000       4.48618500      -0.57767000
C        3.25174200       2.67746900       0.69267700
N        3.18494900       1.95262700      -0.59891500
H        2.30430800       5.48453000      -0.45690200
H        1.35553000       4.29336300      -1.10523400
H        2.35686800       4.42745800       1.54326800
H        1.19202700       3.29723200       0.84862700
H        3.12138600       1.94441200       1.49022500
H        4.25001200       3.11655900       0.76719600
H        2.26695100       1.44489600      -0.70377800
H        3.92202500       1.23059000      -0.67954900
H        3.23518800       2.65495900      -1.34391400
