1sa_1msa_1dma.log
 OpenBabel11151907183D
Gaussian users/kemi/kmacke/programs/G09D/g09/g09 # opt freq wb97xd 6-31++g(d,p)
 26 23  0  0  0  0  0  0  0  0999 V2000
    2.1501   -0.5802    0.1118 S   0  0  0  0  0  0  0  0  0  0  0  0
    3.5705   -0.6803   -0.0468 O   0  0  0  0  0  0  0  0  0  0  0  0
    1.5991    0.4939    0.9479 O   0  0  0  0  0  0  0  0  0  0  0  0
    1.5120   -0.4361   -1.3326 O   0  0  0  0  0  0  0  0  0  0  0  0
    0.5062   -0.4088   -1.2863 H   0  0  0  0  0  0  0  0  0  0  0  0
    1.6050   -1.9512    0.6396 O   0  0  0  0  0  0  0  0  0  0  0  0
    0.6030   -1.9255    0.7421 H   0  0  0  0  0  0  0  0  0  0  0  0
   -1.8290   -0.8120    0.0333 S   0  0  0  0  0  0  0  0  0  0  0  0
   -3.1771   -1.6762   -0.7415 C   0  0  0  0  0  0  0  0  0  0  0  0
   -2.7619   -2.4032   -1.4392 H   0  0  0  0  0  0  0  0  0  0  0  0
   -3.7428   -2.1754    0.0456 H   0  0  0  0  0  0  0  0  0  0  0  0
   -3.7978   -0.9460   -1.2605 H   0  0  0  0  0  0  0  0  0  0  0  0
   -0.9994   -1.8525    0.6862 O   0  0  0  0  0  0  0  0  0  0  0  0
   -2.3924    0.2048    0.9297 O   0  0  0  0  0  0  0  0  0  0  0  0
   -1.0684   -0.1496   -1.1009 O   0  0  0  0  0  0  0  0  0  0  0  0
   -0.8440    1.5523   -0.4685 H   0  0  0  0  0  0  0  0  0  0  0  0
   -0.2634    2.2640    0.0149 N   0  0  0  0  0  0  0  0  0  0  0  0
    0.4009    1.6722    0.5545 H   0  0  0  0  0  0  0  0  0  0  0  0
   -1.0935    3.0851    0.9232 C   0  0  0  0  0  0  0  0  0  0  0  0
   -1.7699    3.6995    0.3273 H   0  0  0  0  0  0  0  0  0  0  0  0
   -0.4421    3.7220    1.5229 H   0  0  0  0  0  0  0  0  0  0  0  0
   -1.6674    2.4082    1.5551 H   0  0  0  0  0  0  0  0  0  0  0  0
    0.5182    3.0231   -0.9863 C   0  0  0  0  0  0  0  0  0  0  0  0
   -0.1630    3.5876   -1.6241 H   0  0  0  0  0  0  0  0  0  0  0  0
    1.0937    2.3156   -1.5841 H   0  0  0  0  0  0  0  0  0  0  0  0
    1.1958    3.7027   -0.4685 H   0  0  0  0  0  0  0  0  0  0  0  0
  1  6  1  0  0  0  0
  1  3  2  0  0  0  0
  2  1  2  0  0  0  0
  4  5  1  0  0  0  0
  4  1  1  0  0  0  0
  6  7  1  0  0  0  0
  8 13  2  0  0  0  0
  8 14  1  0  0  0  0
  9  8  1  0  0  0  0
  9 11  1  0  0  0  0
 10  9  1  0  0  0  0
 12  9  1  0  0  0  0
 15  8  2  0  0  0  0
 16 17  1  0  0  0  0
 17 18  1  0  0  0  0
 17 19  1  0  0  0  0
 19 21  1  0  0  0  0
 19 22  1  0  0  0  0
 20 19  1  0  0  0  0
 23 26  1  0  0  0  0
 23 17  1  0  0  0  0
 24 23  1  0  0  0  0
 25 23  1  0  0  0  0
M  RAD  1  14   2
M  END
$$$$
