2msa.log
 OpenBabel11151907183D
Gaussian users/kemi/kmacke/programs/G09D/g09/g09 # opt freq wb97xd 6-31++g(d,p)
 18 16  0  0  0  0  0  0  0  0999 V2000
   -1.8639    0.0880    0.0560 S   0  0  0  0  0  0  0  0  0  0  0  0
   -1.6119    1.5084   -0.1171 O   0  0  0  0  0  0  0  0  0  0  0  0
   -1.2081   -0.5674    1.1960 O   0  0  0  0  0  0  0  0  0  0  0  0
   -1.5089   -0.7112   -1.2668 O   0  0  0  0  0  0  0  0  0  0  0  0
    2.0412   -0.1195   -0.0753 S   0  0  0  0  0  0  0  0  0  0  0  0
    1.4947   -0.5989    1.3384 O   0  0  0  0  0  0  0  0  0  0  0  0
    0.5039   -0.6279    1.3478 H   0  0  0  0  0  0  0  0  0  0  0  0
    1.1358   -0.6193   -1.1205 O   0  0  0  0  0  0  0  0  0  0  0  0
    3.4369   -0.4729   -0.1387 O   0  0  0  0  0  0  0  0  0  0  0  0
   -0.5154   -0.7473   -1.3432 H   0  0  0  0  0  0  0  0  0  0  0  0
   -3.6027   -0.2341    0.1281 C   0  0  0  0  0  0  0  0  0  0  0  0
   -3.7518   -1.3103    0.2060 H   0  0  0  0  0  0  0  0  0  0  0  0
   -3.9780    0.2779    1.0146 H   0  0  0  0  0  0  0  0  0  0  0  0
   -4.0591    0.1700   -0.7752 H   0  0  0  0  0  0  0  0  0  0  0  0
    1.8616    1.6483   -0.0062 C   0  0  0  0  0  0  0  0  0  0  0  0
    2.4455    2.0113    0.8395 H   0  0  0  0  0  0  0  0  0  0  0  0
    2.2539    2.0433   -0.9442 H   0  0  0  0  0  0  0  0  0  0  0  0
    0.8023    1.8907    0.1012 H   0  0  0  0  0  0  0  0  0  0  0  0
  1 11  1  0  0  0  0
  1  3  2  0  0  0  0
  2  1  2  0  0  0  0
  4  1  1  0  0  0  0
  5 15  1  0  0  0  0
  5  6  1  0  0  0  0
  6  7  1  0  0  0  0
  8  5  2  0  0  0  0
  9  5  2  0  0  0  0
 10  4  1  0  0  0  0
 11 12  1  0  0  0  0
 11 13  1  0  0  0  0
 14 11  1  0  0  0  0
 15 18  1  0  0  0  0
 15 16  1  0  0  0  0
 17 15  1  0  0  0  0
M  END
$$$$
