2sa_1msa_3dma.log
 OpenBabel11151907183D
Gaussian users/kemi/kmacke/programs/G09D/g09/g09 # opt freq wb97xd 6-31++g(d,p)
 53 47  0  0  0  0  0  0  0  0999 V2000
    4.1326    0.1956   -0.0389 S   0  0  0  0  0  0  0  0  0  0  0  0
    5.4243    0.3678    1.1815 C   0  0  0  0  0  0  0  0  0  0  0  0
    5.5791   -0.6015    1.6560 H   0  0  0  0  0  0  0  0  0  0  0  0
    6.3303    0.6928    0.6695 H   0  0  0  0  0  0  0  0  0  0  0  0
    5.1104    1.1089    1.9167 H   0  0  0  0  0  0  0  0  0  0  0  0
    2.9045   -0.2113    0.7192 O   0  0  0  0  0  0  0  0  0  0  0  0
    4.5720   -0.8348   -0.9920 O   0  0  0  0  0  0  0  0  0  0  0  0
    3.9532    1.5525   -0.6264 O   0  0  0  0  0  0  0  0  0  0  0  0
    1.9479   -2.5630   -0.3178 N   0  0  0  0  0  0  0  0  0  0  0  0
    2.2064   -1.6504    0.1254 H   0  0  0  0  0  0  0  0  0  0  0  0
    1.7649   -2.3434   -1.7721 C   0  0  0  0  0  0  0  0  0  0  0  0
    1.5474   -3.3004   -2.2490 H   0  0  0  0  0  0  0  0  0  0  0  0
    2.6811   -1.9073   -2.1722 H   0  0  0  0  0  0  0  0  0  0  0  0
    0.9162   -1.6734   -1.9094 H   0  0  0  0  0  0  0  0  0  0  0  0
    3.0099   -3.5396    0.0041 C   0  0  0  0  0  0  0  0  0  0  0  0
    2.7603   -4.5029   -0.4434 H   0  0  0  0  0  0  0  0  0  0  0  0
    3.0742   -3.6424    1.0876 H   0  0  0  0  0  0  0  0  0  0  0  0
    3.9523   -3.1598   -0.3934 H   0  0  0  0  0  0  0  0  0  0  0  0
   -2.0828    1.9707   -0.1612 S   0  0  0  0  0  0  0  0  0  0  0  0
   -3.2756    1.8366   -1.0234 O   0  0  0  0  0  0  0  0  0  0  0  0
   -1.5826    3.3237    0.0290 O   0  0  0  0  0  0  0  0  0  0  0  0
   -2.2462    1.1754    1.0869 O   0  0  0  0  0  0  0  0  0  0  0  0
   -1.3303   -0.1768    1.4830 H   0  0  0  0  0  0  0  0  0  0  0  0
   -0.8610    1.2434   -0.9611 O   0  0  0  0  0  0  0  0  0  0  0  0
   -1.0210    0.2570   -0.9928 H   0  0  0  0  0  0  0  0  0  0  0  0
   -1.4548   -2.0386    0.4366 S   0  0  0  0  0  0  0  0  0  0  0  0
   -0.8449   -1.0432    1.5333 O   0  0  0  0  0  0  0  0  0  0  0  0
   -1.3304   -1.3332   -0.8725 O   0  0  0  0  0  0  0  0  0  0  0  0
   -0.5971   -3.2253    0.5339 O   0  0  0  0  0  0  0  0  0  0  0  0
    1.0379   -2.8659    0.0869 H   0  0  0  0  0  0  0  0  0  0  0  0
   -2.8697   -2.2771    0.7832 O   0  0  0  0  0  0  0  0  0  0  0  0
   -3.8846   -1.0837    0.1721 H   0  0  0  0  0  0  0  0  0  0  0  0
   -4.6022   -0.4077   -0.1811 N   0  0  0  0  0  0  0  0  0  0  0  0
   -4.0860    0.4154   -0.5697 H   0  0  0  0  0  0  0  0  0  0  0  0
   -5.4032    0.0570    0.9707 C   0  0  0  0  0  0  0  0  0  0  0  0
   -5.8910   -0.7994    1.4386 H   0  0  0  0  0  0  0  0  0  0  0  0
   -6.1478    0.7761    0.6259 H   0  0  0  0  0  0  0  0  0  0  0  0
   -4.7232    0.5362    1.6751 H   0  0  0  0  0  0  0  0  0  0  0  0
   -5.3750   -1.0617   -1.2548 C   0  0  0  0  0  0  0  0  0  0  0  0
   -5.8835   -1.9377   -0.8497 H   0  0  0  0  0  0  0  0  0  0  0  0
   -4.6825   -1.3704   -2.0378 H   0  0  0  0  0  0  0  0  0  0  0  0
   -6.1035   -0.3568   -1.6587 H   0  0  0  0  0  0  0  0  0  0  0  0
    1.4890    2.5759   -0.0853 N   0  0  0  0  0  0  0  0  0  0  0  0
    1.4661    3.9339   -0.6735 C   0  0  0  0  0  0  0  0  0  0  0  0
    1.3195    2.5517    1.3870 C   0  0  0  0  0  0  0  0  0  0  0  0
    2.3998    2.1174   -0.3279 H   0  0  0  0  0  0  0  0  0  0  0  0
    0.3568    2.9998    1.6344 H   0  0  0  0  0  0  0  0  0  0  0  0
    2.1368    3.1153    1.8402 H   0  0  0  0  0  0  0  0  0  0  0  0
    1.3656    1.5127    1.7126 H   0  0  0  0  0  0  0  0  0  0  0  0
    0.4966    4.3879   -0.4696 H   0  0  0  0  0  0  0  0  0  0  0  0
    1.6202    3.8469   -1.7490 H   0  0  0  0  0  0  0  0  0  0  0  0
    2.2764    4.5181   -0.2349 H   0  0  0  0  0  0  0  0  0  0  0  0
    0.7261    2.0170   -0.5002 H   0  0  0  0  0  0  0  0  0  0  0  0
  1  6  1  0  0  0  0
  1  2  1  0  0  0  0
  2  3  1  0  0  0  0
  2  5  1  0  0  0  0
  4  2  1  0  0  0  0
  7  1  2  0  0  0  0
  8  1  2  0  0  0  0
  9 15  1  0  0  0  0
  9 30  1  0  0  0  0
  9 10  1  0  0  0  0
 11  9  1  0  0  0  0
 12 11  1  0  0  0  0
 13 11  1  0  0  0  0
 14 11  1  0  0  0  0
 15 17  1  0  0  0  0
 16 15  1  0  0  0  0
 18 15  1  0  0  0  0
 19 21  2  0  0  0  0
 19 22  1  0  0  0  0
 20 19  2  0  0  0  0
 23 27  1  0  0  0  0
 24 19  1  0  0  0  0
 25 24  1  0  0  0  0
 26 29  2  0  0  0  0
 26 31  1  0  0  0  0
 26 27  1  0  0  0  0
 28 26  2  0  0  0  0
 33 32  1  0  0  0  0
 33 35  1  0  0  0  0
 34 33  1  0  0  0  0
 35 36  1  0  0  0  0
 35 38  1  0  0  0  0
 37 35  1  0  0  0  0
 39 40  1  0  0  0  0
 39 33  1  0  0  0  0
 41 39  1  0  0  0  0
 42 39  1  0  0  0  0
 43 45  1  0  0  0  0
 44 50  1  0  0  0  0
 44 52  1  0  0  0  0
 44 43  1  0  0  0  0
 45 47  1  0  0  0  0
 45 49  1  0  0  0  0
 45 48  1  0  0  0  0
 46 43  1  0  0  0  0
 51 44  1  0  0  0  0
 53 43  1  0  0  0  0
M  RAD  3   6   2  22   2  31   2
M  END
$$$$
