3msa_2dma.log
 OpenBabel11151907183D
Gaussian users/kemi/kmacke/programs/G09D/g09/g09 # opt freq wb97xd 6-31++g(d,p)
 47 42  0  0  0  0  0  0  0  0999 V2000
    4.0446   -0.7012    0.0075 S   0  0  0  0  0  0  0  0  0  0  0  0
    5.6452   -1.3409   -0.4181 C   0  0  0  0  0  0  0  0  0  0  0  0
    5.9470   -1.9986    0.3975 H   0  0  0  0  0  0  0  0  0  0  0  0
    5.5594   -1.8938   -1.3528 H   0  0  0  0  0  0  0  0  0  0  0  0
    6.3363   -0.5040   -0.5141 H   0  0  0  0  0  0  0  0  0  0  0  0
    4.1536    0.1377    1.1925 O   0  0  0  0  0  0  0  0  0  0  0  0
    3.0809   -1.7999    0.0434 O   0  0  0  0  0  0  0  0  0  0  0  0
    3.7826    0.1882   -1.2752 O   0  0  0  0  0  0  0  0  0  0  0  0
    2.8222    0.5281   -1.2386 H   0  0  0  0  0  0  0  0  0  0  0  0
   -2.4890    1.0180   -0.2634 H   0  0  0  0  0  0  0  0  0  0  0  0
    0.8097    1.9556   -0.0962 S   0  0  0  0  0  0  0  0  0  0  0  0
   -0.0779    2.8829   -0.8378 O   0  0  0  0  0  0  0  0  0  0  0  0
    0.1741    1.3870    1.1076 O   0  0  0  0  0  0  0  0  0  0  0  0
    1.3475    0.8621   -0.9859 O   0  0  0  0  0  0  0  0  0  0  0  0
   -2.6458    2.0431   -0.1069 N   0  0  0  0  0  0  0  0  0  0  0  0
   -1.7608    2.5007   -0.4044 H   0  0  0  0  0  0  0  0  0  0  0  0
   -2.8776    2.2766    1.3369 C   0  0  0  0  0  0  0  0  0  0  0  0
   -3.7249    1.6652    1.6490 H   0  0  0  0  0  0  0  0  0  0  0  0
   -3.0777    3.3376    1.4985 H   0  0  0  0  0  0  0  0  0  0  0  0
   -1.9737    1.9801    1.8680 H   0  0  0  0  0  0  0  0  0  0  0  0
   -3.7726    2.4537   -0.9677 C   0  0  0  0  0  0  0  0  0  0  0  0
   -4.6497    1.8711   -0.6813 H   0  0  0  0  0  0  0  0  0  0  0  0
   -3.5131    2.2492   -2.0067 H   0  0  0  0  0  0  0  0  0  0  0  0
   -3.9613    3.5205   -0.8363 H   0  0  0  0  0  0  0  0  0  0  0  0
    0.8053   -0.8673   -0.1524 H   0  0  0  0  0  0  0  0  0  0  0  0
   -3.4856   -1.3843    0.0360 S   0  0  0  0  0  0  0  0  0  0  0  0
   -2.3777   -0.6144   -0.6651 O   0  0  0  0  0  0  0  0  0  0  0  0
   -2.9202   -2.4069    0.9279 O   0  0  0  0  0  0  0  0  0  0  0  0
   -4.4606   -0.4519    0.6250 O   0  0  0  0  0  0  0  0  0  0  0  0
    0.0880   -1.5251    0.1819 N   0  0  0  0  0  0  0  0  0  0  0  0
   -0.8278   -1.0720   -0.0235 H   0  0  0  0  0  0  0  0  0  0  0  0
    0.2321   -1.7284    1.6422 C   0  0  0  0  0  0  0  0  0  0  0  0
    1.1859   -2.2222    1.8281 H   0  0  0  0  0  0  0  0  0  0  0  0
   -0.6108   -2.3308    1.9825 H   0  0  0  0  0  0  0  0  0  0  0  0
    0.2189   -0.7474    2.1146 H   0  0  0  0  0  0  0  0  0  0  0  0
    0.1412   -2.7773   -0.6009 C   0  0  0  0  0  0  0  0  0  0  0  0
    1.1084   -3.2532   -0.4430 H   0  0  0  0  0  0  0  0  0  0  0  0
    0.0135   -2.5321   -1.6556 H   0  0  0  0  0  0  0  0  0  0  0  0
   -0.6753   -3.4189   -0.2666 H   0  0  0  0  0  0  0  0  0  0  0  0
    2.2313    2.8951    0.4207 C   0  0  0  0  0  0  0  0  0  0  0  0
    1.8805    3.6889    1.0806 H   0  0  0  0  0  0  0  0  0  0  0  0
    2.9117    2.2226    0.9471 H   0  0  0  0  0  0  0  0  0  0  0  0
    2.7046    3.3160   -0.4670 H   0  0  0  0  0  0  0  0  0  0  0  0
   -4.3275   -2.2502   -1.2813 C   0  0  0  0  0  0  0  0  0  0  0  0
   -5.1506   -2.8105   -0.8368 H   0  0  0  0  0  0  0  0  0  0  0  0
   -4.7042   -1.5174   -1.9951 H   0  0  0  0  0  0  0  0  0  0  0  0
   -3.6192   -2.9265   -1.7605 H   0  0  0  0  0  0  0  0  0  0  0  0
  1  7  2  0  0  0  0
  1  6  2  0  0  0  0
  2  1  1  0  0  0  0
  2  3  1  0  0  0  0
  4  2  1  0  0  0  0
  5  2  1  0  0  0  0
  8  9  1  0  0  0  0
  8  1  1  0  0  0  0
 10 15  1  0  0  0  0
 11 40  1  0  0  0  0
 11 13  1  0  0  0  0
 12 11  2  0  0  0  0
 14 11  2  0  0  0  0
 15 17  1  0  0  0  0
 16 15  1  0  0  0  0
 17 19  1  0  0  0  0
 17 18  1  0  0  0  0
 17 20  1  0  0  0  0
 21 24  1  0  0  0  0
 21 22  1  0  0  0  0
 21 15  1  0  0  0  0
 23 21  1  0  0  0  0
 25 30  1  0  0  0  0
 26 29  2  0  0  0  0
 26 28  1  0  0  0  0
 27 26  2  0  0  0  0
 30 32  1  0  0  0  0
 31 30  1  0  0  0  0
 32 33  1  0  0  0  0
 32 34  1  0  0  0  0
 32 35  1  0  0  0  0
 36 37  1  0  0  0  0
 36 39  1  0  0  0  0
 36 30  1  0  0  0  0
 38 36  1  0  0  0  0
 40 42  1  0  0  0  0
 40 41  1  0  0  0  0
 43 40  1  0  0  0  0
 44 45  1  0  0  0  0
 44 26  1  0  0  0  0
 46 44  1  0  0  0  0
 47 44  1  0  0  0  0
M  RAD  2  13   2  28   2
M  END
$$$$
