3msa_1dma.log
 OpenBabel11151907183D
Gaussian opt/gaussian/g09/g09 # opt freq wb97xd 6-31++g(d,p)
 37 33  0  0  0  0  0  0  0  0999 V2000
   -0.2161    2.0679   -0.6222 S   0  0  0  0  0  0  0  0  0  0  0  0
   -1.1473    1.9474    0.5281 O   0  0  0  0  0  0  0  0  0  0  0  0
    1.2050    1.9463   -0.1894 O   0  0  0  0  0  0  0  0  0  0  0  0
   -0.4026    3.7133   -1.2736 C   0  0  0  0  0  0  0  0  0  0  0  0
   -0.5402    1.1438   -1.7408 O   0  0  0  0  0  0  0  0  0  0  0  0
   -0.4103    0.7507    1.7394 H   0  0  0  0  0  0  0  0  0  0  0  0
   -2.5315   -1.3514   -0.2734 S   0  0  0  0  0  0  0  0  0  0  0  0
   -3.6625   -0.1887    0.4598 C   0  0  0  0  0  0  0  0  0  0  0  0
   -1.2690   -1.2793    0.4646 O   0  0  0  0  0  0  0  0  0  0  0  0
   -2.3103   -0.7560   -1.7234 O   0  0  0  0  0  0  0  0  0  0  0  0
   -3.1892   -2.6305   -0.4269 O   0  0  0  0  0  0  0  0  0  0  0  0
   -1.6427   -0.0041   -1.7117 H   0  0  0  0  0  0  0  0  0  0  0  0
    0.3103    0.2902    2.3249 N   0  0  0  0  0  0  0  0  0  0  0  0
    0.8997   -0.2508    1.6601 H   0  0  0  0  0  0  0  0  0  0  0  0
   -0.3031   -0.6430    3.2947 C   0  0  0  0  0  0  0  0  0  0  0  0
   -0.9382   -0.0795    3.9803 H   0  0  0  0  0  0  0  0  0  0  0  0
    0.4914   -1.1432    3.8499 H   0  0  0  0  0  0  0  0  0  0  0  0
   -0.8888   -1.3720    2.7374 H   0  0  0  0  0  0  0  0  0  0  0  0
    1.1636    1.3306    2.9421 C   0  0  0  0  0  0  0  0  0  0  0  0
    0.5636    1.9191    3.6379 H   0  0  0  0  0  0  0  0  0  0  0  0
    1.5493    1.9634    2.1439 H   0  0  0  0  0  0  0  0  0  0  0  0
    1.9865    0.8446    3.4676 H   0  0  0  0  0  0  0  0  0  0  0  0
    2.7131   -1.1893   -0.4706 S   0  0  0  0  0  0  0  0  0  0  0  0
    3.8858   -2.0029   -0.6899 O   0  0  0  0  0  0  0  0  0  0  0  0
    3.0324    0.2598   -1.0258 O   0  0  0  0  0  0  0  0  0  0  0  0
    2.2038   -1.0647    0.9037 O   0  0  0  0  0  0  0  0  0  0  0  0
    1.3769   -1.7366   -1.5052 C   0  0  0  0  0  0  0  0  0  0  0  0
    0.2715    3.8142   -2.1243 H   0  0  0  0  0  0  0  0  0  0  0  0
   -0.1441    4.4225   -0.4874 H   0  0  0  0  0  0  0  0  0  0  0  0
   -1.4396    3.8389   -1.5849 H   0  0  0  0  0  0  0  0  0  0  0  0
    1.0143   -2.6823   -1.1019 H   0  0  0  0  0  0  0  0  0  0  0  0
    1.7703   -1.8590   -2.5142 H   0  0  0  0  0  0  0  0  0  0  0  0
    0.5895   -0.9833   -1.4774 H   0  0  0  0  0  0  0  0  0  0  0  0
    2.3306    0.9173   -0.7465 H   0  0  0  0  0  0  0  0  0  0  0  0
   -4.5603   -0.1547   -0.1574 H   0  0  0  0  0  0  0  0  0  0  0  0
   -3.1632    0.7811    0.5076 H   0  0  0  0  0  0  0  0  0  0  0  0
   -3.9019   -0.5570    1.4586 H   0  0  0  0  0  0  0  0  0  0  0  0
  1  3  2  0  0  0  0
  1  2  1  0  0  0  0
  4  1  1  0  0  0  0
  4 29  1  0  0  0  0
  5  1  2  0  0  0  0
  6 13  1  0  0  0  0
  7  8  1  0  0  0  0
  7  9  2  0  0  0  0
  8 36  1  0  0  0  0
  8 37  1  0  0  0  0
 10 12  1  0  0  0  0
 10  7  1  0  0  0  0
 11  7  2  0  0  0  0
 13 19  1  0  0  0  0
 13 15  1  0  0  0  0
 14 13  1  0  0  0  0
 15 17  1  0  0  0  0
 15 16  1  0  0  0  0
 18 15  1  0  0  0  0
 19 22  1  0  0  0  0
 19 20  1  0  0  0  0
 21 19  1  0  0  0  0
 23 26  2  0  0  0  0
 24 23  2  0  0  0  0
 25 34  1  0  0  0  0
 25 23  1  0  0  0  0
 27 33  1  0  0  0  0
 27 31  1  0  0  0  0
 27 23  1  0  0  0  0
 28  4  1  0  0  0  0
 30  4  1  0  0  0  0
 32 27  1  0  0  0  0
 35  8  1  0  0  0  0
M  RAD  1   2   2
M  END
$$$$
