1hom.log
 OpenBabel02281910223D
Gaussian 09 # opt freq wb97xd/6-31++g(d,p)
 21 20  0  0  0  0  0  0  0  0999 V2000
   -1.8464    1.1913   -0.4999 C   0  0  0  0  0  0  0  0  0  0  0  0
   -1.0254    1.6673    0.7146 C   0  0  0  0  0  0  0  0  0  0  0  0
    0.1850    0.8034    1.0607 C   0  0  0  0  0  0  0  0  0  0  0  0
    1.2394    0.7860   -0.0118 C   0  0  0  0  0  0  0  0  0  0  0  0
    2.4116   -0.1782    0.2647 C   0  0  0  0  0  0  0  0  0  0  0  0
   -2.3832   -0.1971   -0.3135 C   0  0  0  0  0  0  0  0  0  0  0  0
   -3.7179   -0.1997   -0.1541 O   0  0  0  0  0  0  0  0  0  0  0  0
   -4.2203   -1.5091    0.0510 O   0  0  0  0  0  0  0  0  0  0  0  0
   -3.3967   -2.0426   -0.0040 H   0  0  0  0  0  0  0  0  0  0  0  0
   -2.6758    1.8806   -0.6717 H   0  0  0  0  0  0  0  0  0  0  0  0
   -0.6962    2.6883    0.5013 H   0  0  0  0  0  0  0  0  0  0  0  0
   -1.2169    1.1803   -1.3937 H   0  0  0  0  0  0  0  0  0  0  0  0
   -1.6765    1.7180    1.5930 H   0  0  0  0  0  0  0  0  0  0  0  0
    0.6652    1.1685    1.9776 H   0  0  0  0  0  0  0  0  0  0  0  0
   -0.0936   -0.2337    1.2767 H   0  0  0  0  0  0  0  0  0  0  0  0
   -1.7396   -1.2280   -0.2796 O   0  0  0  0  0  0  0  0  0  0  0  0
    1.2347    1.4601   -1.0121 O   0  0  0  0  0  0  0  0  0  0  0  0
    2.5758   -0.7822    1.3022 O   0  0  0  0  0  0  0  0  0  0  0  0
    3.2388   -0.2660   -0.7743 O   0  0  0  0  0  0  0  0  0  0  0  0
    4.3153   -1.1436   -0.5048 O   0  0  0  0  0  0  0  0  0  0  0  0
    4.1105   -1.4469    0.4063 H   0  0  0  0  0  0  0  0  0  0  0  0
  1  6  1  0  0  0  0
  1  2  1  0  0  0  0
  2  3  1  0  0  0  0
  2 13  1  0  0  0  0
  3 15  1  0  0  0  0
  3 14  1  0  0  0  0
  4  5  1  0  0  0  0
  4  3  1  0  0  0  0
  5 18  2  0  0  0  0
  6 16  2  0  0  0  0
  6  7  1  0  0  0  0
  7  8  1  0  0  0  0
  9  8  1  0  0  0  0
 10  1  1  0  0  0  0
 11  2  1  0  0  0  0
 12  1  1  0  0  0  0
 17  4  2  0  0  0  0
 19 20  1  0  0  0  0
 19  5  1  0  0  0  0
 20 21  1  0  0  0  0
M  END
$$$$
