1sa_2hom_1a.log
 OpenBabel02281910223D
Gaussian kemi/andersx/programs/g09/g09 # opt freq wb97xd 6-31++g(d,p)
 53 49  0  0  0  0  0  0  0  0999 V2000
    0.7326   -1.0595   -1.9140 N   0  0  0  0  0  0  0  0  0  0  0  0
    0.1644   -0.3667   -1.3804 H   0  0  0  0  0  0  0  0  0  0  0  0
    0.1504   -1.4310   -2.6651 H   0  0  0  0  0  0  0  0  0  0  0  0
    0.9638   -1.8253   -1.2717 H   0  0  0  0  0  0  0  0  0  0  0  0
    5.0603   -0.3501   -1.2084 C   0  0  0  0  0  0  0  0  0  0  0  0
    5.3090   -0.7149    0.2707 C   0  0  0  0  0  0  0  0  0  0  0  0
    4.0658   -0.7739    1.1612 C   0  0  0  0  0  0  0  0  0  0  0  0
    2.9515   -1.6377    0.6531 C   0  0  0  0  0  0  0  0  0  0  0  0
    1.5976   -1.6264    1.4104 C   0  0  0  0  0  0  0  0  0  0  0  0
    3.9900    0.6928   -1.4289 C   0  0  0  0  0  0  0  0  0  0  0  0
    4.2371    1.7760   -0.6734 O   0  0  0  0  0  0  0  0  0  0  0  0
    3.2611    2.7923   -0.8141 O   0  0  0  0  0  0  0  0  0  0  0  0
    2.5200    2.4149   -0.2893 H   0  0  0  0  0  0  0  0  0  0  0  0
    5.9908    0.0259   -1.6464 H   0  0  0  0  0  0  0  0  0  0  0  0
    5.8230   -1.6805    0.2865 H   0  0  0  0  0  0  0  0  0  0  0  0
    4.7474   -1.2249   -1.7767 H   0  0  0  0  0  0  0  0  0  0  0  0
    5.9875    0.0162    0.7179 H   0  0  0  0  0  0  0  0  0  0  0  0
    4.3279   -1.1230    2.1678 H   0  0  0  0  0  0  0  0  0  0  0  0
    3.6347    0.2235    1.3164 H   0  0  0  0  0  0  0  0  0  0  0  0
    3.0285    0.5718   -2.1555 O   0  0  0  0  0  0  0  0  0  0  0  0
    2.9895   -2.3078   -0.3550 O   0  0  0  0  0  0  0  0  0  0  0  0
    0.5690   -1.9738    0.8938 O   0  0  0  0  0  0  0  0  0  0  0  0
    1.7645   -1.1693    2.6543 O   0  0  0  0  0  0  0  0  0  0  0  0
    0.5479   -1.0975    3.3760 O   0  0  0  0  0  0  0  0  0  0  0  0
    0.1555   -0.2809    2.9928 H   0  0  0  0  0  0  0  0  0  0  0  0
    0.0347    1.5421    0.5360 S   0  0  0  0  0  0  0  0  0  0  0  0
    1.4572    1.1616    0.5787 O   0  0  0  0  0  0  0  0  0  0  0  0
   -0.1856    2.9855    0.4183 O   0  0  0  0  0  0  0  0  0  0  0  0
   -0.7622    0.7403   -0.4219 O   0  0  0  0  0  0  0  0  0  0  0  0
    1.5944   -0.6014   -2.2415 H   0  0  0  0  0  0  0  0  0  0  0  0
   -0.5161    1.0934    2.0042 O   0  0  0  0  0  0  0  0  0  0  0  0
   -1.4855    0.9196    1.9417 H   0  0  0  0  0  0  0  0  0  0  0  0
   -2.8148   -2.6530    0.1185 C   0  0  0  0  0  0  0  0  0  0  0  0
   -4.2683   -2.2774    0.4619 C   0  0  0  0  0  0  0  0  0  0  0  0
   -4.7161   -0.8160    0.2481 C   0  0  0  0  0  0  0  0  0  0  0  0
   -3.7175    0.2026    0.7121 C   0  0  0  0  0  0  0  0  0  0  0  0
   -3.5303    1.4706   -0.1615 C   0  0  0  0  0  0  0  0  0  0  0  0
   -2.2549   -2.2882   -1.2361 C   0  0  0  0  0  0  0  0  0  0  0  0
   -2.8306   -1.1453   -1.6568 O   0  0  0  0  0  0  0  0  0  0  0  0
   -2.2020   -0.5899   -2.8013 O   0  0  0  0  0  0  0  0  0  0  0  0
   -2.4638    0.3367   -2.6440 H   0  0  0  0  0  0  0  0  0  0  0  0
   -2.1200   -2.1863    0.8286 H   0  0  0  0  0  0  0  0  0  0  0  0
   -4.9533   -2.9087   -0.1121 H   0  0  0  0  0  0  0  0  0  0  0  0
   -2.6808   -3.7311    0.2277 H   0  0  0  0  0  0  0  0  0  0  0  0
   -4.4062   -2.5406    1.5139 H   0  0  0  0  0  0  0  0  0  0  0  0
   -4.9644   -0.6145   -0.7933 H   0  0  0  0  0  0  0  0  0  0  0  0
   -5.6282   -0.6367    0.8340 H   0  0  0  0  0  0  0  0  0  0  0  0
   -1.3786   -2.8648   -1.8306 O   0  0  0  0  0  0  0  0  0  0  0  0
   -3.0334    0.0613    1.7070 O   0  0  0  0  0  0  0  0  0  0  0  0
   -3.7257    1.5076   -1.3474 O   0  0  0  0  0  0  0  0  0  0  0  0
   -3.1093    2.4595    0.6282 O   0  0  0  0  0  0  0  0  0  0  0  0
   -2.7719    3.6245   -0.1037 O   0  0  0  0  0  0  0  0  0  0  0  0
   -1.7898    3.5850    0.0043 H   0  0  0  0  0  0  0  0  0  0  0  0
  1  2  1  0  0  0  0
  1  4  1  0  0  0  0
  3  1  1  0  0  0  0
  5  6  1  0  0  0  0
  6 15  1  0  0  0  0
  6 17  1  0  0  0  0
  6  7  1  0  0  0  0
  7 19  1  0  0  0  0
  7 18  1  0  0  0  0
  8  7  1  0  0  0  0
  8  9  1  0  0  0  0
  9 23  1  0  0  0  0
 10  5  1  0  0  0  0
 10 11  1  0  0  0  0
 12 11  1  0  0  0  0
 12 13  1  0  0  0  0
 14  5  1  0  0  0  0
 16  5  1  0  0  0  0
 20 10  2  0  0  0  0
 21  8  2  0  0  0  0
 22  9  2  0  0  0  0
 23 24  1  0  0  0  0
 25 24  1  0  0  0  0
 26 27  1  0  0  0  0
 26 31  1  0  0  0  0
 28 26  2  0  0  0  0
 29 26  2  0  0  0  0
 30  1  1  0  0  0  0
 32 31  1  0  0  0  0
 33 44  1  0  0  0  0
 33 34  1  0  0  0  0
 33 42  1  0  0  0  0
 34 45  1  0  0  0  0
 35 34  1  0  0  0  0
 35 36  1  0  0  0  0
 35 47  1  0  0  0  0
 36 49  2  0  0  0  0
 37 51  1  0  0  0  0
 37 36  1  0  0  0  0
 38 33  1  0  0  0  0
 39 38  1  0  0  0  0
 40 41  1  0  0  0  0
 40 39  1  0  0  0  0
 43 34  1  0  0  0  0
 46 35  1  0  0  0  0
 48 38  2  0  0  0  0
 50 37  2  0  0  0  0
 52 53  1  0  0  0  0
 52 51  1  0  0  0  0
M  RAD  1  27   2
M  END
$$$$
