2sa_2hom_1a.log
 OpenBabel02281910223D
Gaussian kemi/andersx/programs/g09/g09 # opt freq wb97xd 6-31++g(d,p)
 60 55  0  0  0  0  0  0  0  0999 V2000
    3.5108   -0.5200    2.8825 N   0  0  0  0  0  0  0  0  0  0  0  0
    4.2596   -1.0139    2.3684 H   0  0  0  0  0  0  0  0  0  0  0  0
    3.2249    0.2724    2.2851 H   0  0  0  0  0  0  0  0  0  0  0  0
    3.8421   -0.1799    3.7809 H   0  0  0  0  0  0  0  0  0  0  0  0
    2.9449    0.8651   -1.7600 C   0  0  0  0  0  0  0  0  0  0  0  0
    4.3173    1.2074   -2.3750 C   0  0  0  0  0  0  0  0  0  0  0  0
    5.5622    0.7801   -1.5674 C   0  0  0  0  0  0  0  0  0  0  0  0
    5.6477   -0.7209   -1.4306 C   0  0  0  0  0  0  0  0  0  0  0  0
    5.0510   -1.3207   -0.1441 C   0  0  0  0  0  0  0  0  0  0  0  0
    2.7692    1.4630   -0.3883 C   0  0  0  0  0  0  0  0  0  0  0  0
    1.9044    2.4770   -0.4368 O   0  0  0  0  0  0  0  0  0  0  0  0
    1.7600    3.1064    0.8287 O   0  0  0  0  0  0  0  0  0  0  0  0
    0.9114    3.5690    0.6513 H   0  0  0  0  0  0  0  0  0  0  0  0
    2.1559    1.2243   -2.4237 H   0  0  0  0  0  0  0  0  0  0  0  0
    4.3631    0.7391   -3.3627 H   0  0  0  0  0  0  0  0  0  0  0  0
    2.8197   -0.2160   -1.6512 H   0  0  0  0  0  0  0  0  0  0  0  0
    4.3788    2.2886   -2.5328 H   0  0  0  0  0  0  0  0  0  0  0  0
    6.4537    1.1013   -2.1126 H   0  0  0  0  0  0  0  0  0  0  0  0
    5.5620    1.2447   -0.5783 H   0  0  0  0  0  0  0  0  0  0  0  0
    3.3612    1.1051    0.6091 O   0  0  0  0  0  0  0  0  0  0  0  0
    6.1437   -1.4551   -2.2508 O   0  0  0  0  0  0  0  0  0  0  0  0
    5.5090   -1.1379    0.9588 O   0  0  0  0  0  0  0  0  0  0  0  0
    3.9763   -2.0400   -0.4593 O   0  0  0  0  0  0  0  0  0  0  0  0
    3.3437   -2.5815    0.6911 O   0  0  0  0  0  0  0  0  0  0  0  0
    2.4333   -2.2079    0.5654 H   0  0  0  0  0  0  0  0  0  0  0  0
    0.3735   -1.1568    1.8225 S   0  0  0  0  0  0  0  0  0  0  0  0
   -1.0703   -1.3831    1.7532 O   0  0  0  0  0  0  0  0  0  0  0  0
    1.0213   -1.2272    0.4684 O   0  0  0  0  0  0  0  0  0  0  0  0
    0.6356    0.3378    2.3482 O   0  0  0  0  0  0  0  0  0  0  0  0
    0.1281    0.9738    1.7941 H   0  0  0  0  0  0  0  0  0  0  0  0
    1.1258   -1.9601    2.7941 O   0  0  0  0  0  0  0  0  0  0  0  0
    2.6876   -1.1491    3.0042 H   0  0  0  0  0  0  0  0  0  0  0  0
   -1.5705    2.6727    0.0036 S   0  0  0  0  0  0  0  0  0  0  0  0
   -0.7921    3.8910    0.0727 O   0  0  0  0  0  0  0  0  0  0  0  0
   -1.0738    1.4933    0.7011 O   0  0  0  0  0  0  0  0  0  0  0  0
   -2.9993    3.0339    0.5208 O   0  0  0  0  0  0  0  0  0  0  0  0
   -3.6167    2.2472    0.5531 H   0  0  0  0  0  0  0  0  0  0  0  0
   -1.7489    2.2965   -1.5055 O   0  0  0  0  0  0  0  0  0  0  0  0
   -1.9755    1.3229   -1.5924 H   0  0  0  0  0  0  0  0  0  0  0  0
   -3.2854   -2.4678   -1.4968 C   0  0  0  0  0  0  0  0  0  0  0  0
   -4.6440   -2.3087   -2.1998 C   0  0  0  0  0  0  0  0  0  0  0  0
   -5.5190   -1.1045   -1.7853 C   0  0  0  0  0  0  0  0  0  0  0  0
   -5.7141   -1.0614   -0.2897 C   0  0  0  0  0  0  0  0  0  0  0  0
   -4.8209   -0.0678    0.4792 C   0  0  0  0  0  0  0  0  0  0  0  0
   -2.3656   -1.2844   -1.6242 C   0  0  0  0  0  0  0  0  0  0  0  0
   -1.1028   -1.6770   -1.7873 O   0  0  0  0  0  0  0  0  0  0  0  0
   -0.2053   -0.5799   -1.7908 O   0  0  0  0  0  0  0  0  0  0  0  0
    0.2542   -0.7475   -0.9248 H   0  0  0  0  0  0  0  0  0  0  0  0
   -3.4153   -2.6210   -0.4172 H   0  0  0  0  0  0  0  0  0  0  0  0
   -4.4882   -2.2501   -3.2814 H   0  0  0  0  0  0  0  0  0  0  0  0
   -2.7765   -3.3586   -1.8715 H   0  0  0  0  0  0  0  0  0  0  0  0
   -5.2068   -3.2271   -2.0083 H   0  0  0  0  0  0  0  0  0  0  0  0
   -5.0783   -0.1684   -2.1297 H   0  0  0  0  0  0  0  0  0  0  0  0
   -6.5062   -1.2270   -2.2389 H   0  0  0  0  0  0  0  0  0  0  0  0
   -2.7289   -0.1244   -1.5624 O   0  0  0  0  0  0  0  0  0  0  0  0
   -6.5009   -1.7462    0.3183 O   0  0  0  0  0  0  0  0  0  0  0  0
   -4.8109    1.1213    0.2480 O   0  0  0  0  0  0  0  0  0  0  0  0
   -4.1079   -0.7164    1.3858 O   0  0  0  0  0  0  0  0  0  0  0  0
   -3.2746    0.1671    2.1178 O   0  0  0  0  0  0  0  0  0  0  0  0
   -2.4150   -0.3138    2.0337 H   0  0  0  0  0  0  0  0  0  0  0  0
  1 32  1  0  0  0  0
  1  4  1  0  0  0  0
  2  1  1  0  0  0  0
  3  1  1  0  0  0  0
  5 16  1  0  0  0  0
  5 10  1  0  0  0  0
  6  5  1  0  0  0  0
  6  7  1  0  0  0  0
  7  8  1  0  0  0  0
  7 19  1  0  0  0  0
  8  9  1  0  0  0  0
  9 22  2  0  0  0  0
 10 20  2  0  0  0  0
 11 10  1  0  0  0  0
 11 12  1  0  0  0  0
 13 12  1  0  0  0  0
 14  5  1  0  0  0  0
 15  6  1  0  0  0  0
 17  6  1  0  0  0  0
 18  7  1  0  0  0  0
 21  8  2  0  0  0  0
 23  9  1  0  0  0  0
 23 24  1  0  0  0  0
 25 24  1  0  0  0  0
 26 29  1  0  0  0  0
 26 31  1  0  0  0  0
 27 26  2  0  0  0  0
 28 26  2  0  0  0  0
 30 29  1  0  0  0  0
 33 34  2  0  0  0  0
 33 36  1  0  0  0  0
 33 35  2  0  0  0  0
 36 37  1  0  0  0  0
 38 33  1  0  0  0  0
 39 38  1  0  0  0  0
 40 49  1  0  0  0  0
 41 52  1  0  0  0  0
 41 42  1  0  0  0  0
 41 40  1  0  0  0  0
 42 43  1  0  0  0  0
 43 56  2  0  0  0  0
 43 44  1  0  0  0  0
 44 58  1  0  0  0  0
 45 55  2  0  0  0  0
 45 40  1  0  0  0  0
 46 45  1  0  0  0  0
 47 46  1  0  0  0  0
 47 48  1  0  0  0  0
 50 41  1  0  0  0  0
 51 40  1  0  0  0  0
 53 42  1  0  0  0  0
 54 42  1  0  0  0  0
 57 44  2  0  0  0  0
 58 59  1  0  0  0  0
 60 59  1  0  0  0  0
M  RAD  1  31   2
M  END
$$$$
