12
1pha1am
N        2.82041300       0.02384500      -0.04012400
H        3.42826000       0.74307400       0.33722900
H        3.38587400      -0.60800100      -0.59702500
H        2.42012400      -0.50091700       0.73802600
P       -0.51027300      -0.04432900       0.08096200
O        0.42491300       0.71958900      -0.92866900
O        0.13631600      -0.78607000       1.18537200
O       -1.53706100       1.06470100       0.63319000
O       -1.39588400      -0.95599700      -0.91521500
H       -1.86911100      -1.64209300      -0.43160500
H        1.40434300       0.53441900      -0.71489000
H       -1.88454100       1.63374200      -0.06272600
15
1pha1sa
S       -2.09497600      -0.09406000       0.08392700
O       -3.50243500      -0.37775900       0.08677100
O       -1.25395400      -0.49683300       1.20014200
O       -1.49895700      -0.60759400      -1.26283900
H       -0.48199000      -0.51727400      -1.27190400
O       -1.86352800       1.49841000       0.00696000
H       -2.48600500       1.88328400      -0.62731300
P        1.95474800      -0.01826000      -0.07737300
O        2.32383900       1.52613500      -0.09640100
O        1.02868200      -0.36117600      -1.18876100
O        3.39484600      -0.69942900      -0.14182500
O        1.42994600      -0.39561200       1.36602000
H        0.44424400      -0.42704500       1.41492500
H        2.87951500       1.81295600       0.63751300
H        3.37513200      -1.66220200      -0.09599400
11
1pha1w
O        2.73841700      -0.08006200      -0.06417200
H        2.21732900       0.12822500       0.73306800
H        3.35486700       0.64331900      -0.19985800
P       -0.48264700       0.02610500       0.10188200
O        0.32836000      -0.48906900      -1.16882600
O        0.35390100       0.23685900       1.30418600
O       -1.27378300       1.34032200      -0.33342700
O       -1.69356900      -1.01941900       0.21746100
H       -1.40473000      -1.91760800       0.41335800
H        1.29961000      -0.36948400      -1.02374000
H       -1.85398900       1.21492300      -1.09283200
22
1pha2sa
S        0.64965200       2.14750100      -0.06679700
O        1.82675200       1.77321300      -0.85446400
O       -0.60540000       2.36872500      -0.79011800
O        0.44095100       1.18612500       1.07707300
H       -1.00426500       0.58003800       1.29164300
O        0.96090500       3.57094000       0.59038700
H        1.90998300       3.63527400       0.77156400
P       -2.40280800      -0.54732000      -0.00212500
O       -3.96759900      -0.67115200       0.07614600
O       -1.90417400       0.12780500       1.30700400
O       -1.89836100      -2.00910000      -0.14707700
O       -2.09600900       0.30994900      -1.25159900
H       -1.55033200       1.14641300      -1.13287900
H       -4.28820300      -1.48287800       0.48737200
H       -0.92442200      -2.18552500       0.02732600
S        1.80993500      -1.77185200      -0.00470100
O        2.27945400      -0.72988200       1.07872300
O        1.34205200      -0.85477500      -1.21559900
H        1.80232900       0.01942900      -1.24543600
H        1.58897100      -0.02710400       1.22640400
O        2.93933100      -2.58474000      -0.33919800
O        0.57643200      -2.42288800       0.43745100
16
2pha
P       -2.00597800       0.01928100       0.07464400
O       -3.40192800      -0.64747500       0.48175200
O       -1.10634800       0.36416300       1.20726000
O       -1.41443400      -0.98034500      -0.98756500
O       -2.49312600       1.33753200      -0.67564000
H       -3.03127800       1.16521700      -1.45653800
H       -3.30813700      -1.52450000       0.87004500
H       -0.40950900      -0.95951800      -1.04543100
P        2.00751200      -0.05247400      -0.03974600
O        2.35059300       1.35949500      -0.72114100
O        1.16394700      -0.84920500      -0.97281300
O        3.41259500      -0.73429700       0.30546600
O        1.45673500       0.24067100       1.39490500
H        0.45222400       0.32024900       1.40734300
H        2.75309000       1.98788400      -0.11065000
H        3.77630600      -1.21574400      -0.44603200
