45
1sa1msa1fa2eda-3
S       -1.73232100      -1.54816000       0.37321000
O       -3.01312400      -0.85778800       0.60193100
O       -1.79401000      -2.91966800      -0.11933700
O       -0.82007600      -0.70789500      -0.49053700
O       -1.03689000      -1.54473900       1.80514900
H       -0.79718700       0.99115000      -0.24369100
H       -0.04866400      -1.75443700       1.68043900
S        2.73683900       1.02667300      -0.73513700
O        3.21292700      -0.21377000      -1.42396300
O        2.64923900       0.82513600       0.73820500
O        1.49820800       1.57050700      -1.32280500
H        2.06906600      -1.39344100      -1.57591400
C        4.02151200       2.23631200      -0.99561800
H        4.94531600       1.85554700      -0.56004700
H        4.13301300       2.38866800      -2.06913900
H        3.71458700       3.16159600      -0.50683700
H       -5.25982200       1.73214100      -2.26122300
H       -3.98446800      -0.16147400      -0.53452100
C       -4.47392800       1.40529500      -1.56769800
O       -4.67364800       0.17510700      -1.17531600
O       -3.55867500       2.14146000      -1.24130400
H        3.29661700      -2.41314900       0.32398500
H        2.49154000      -3.72034200       1.20388400
H        2.08650300      -3.94735000      -1.15432000
H        0.54667500      -3.62799000      -0.31424000
H        0.97324500      -2.36705900      -2.42268900
H        0.43774700      -1.47927200      -1.12371800
H        1.96709000      -1.93574100       2.45105600
H        1.89081300      -0.87868300       1.22662900
C        2.31923600      -2.80002000       0.63870100
C        1.51551000      -3.20457200      -0.59167100
N        1.62274000      -1.83255500       1.50060200
N        1.24715900      -2.05011100      -1.49548300
H       -1.86202000       3.06025500       1.58441800
H       -2.17827500       1.30416800       1.61494400
H       -0.47009400       1.94207300       3.33644600
H        0.20522500       0.87028100       2.11493500
H        0.97087400       3.57403700       2.61284800
H        1.72069800       2.39999000       1.70832600
H       -1.82355700       2.23336100      -0.60961100
H       -0.19429500       2.53934500      -0.18300500
C       -1.42482500       2.07158700       1.42470400
C       -0.17889300       1.88153300       2.28166100
N       -1.03415200       1.97651600      -0.00323300
N        0.83765500       2.86079500       1.90885900
45
1sa1msa1fa2eda-1
S        0.34070300       1.41301600      -0.87594700
O        0.77856400       0.05955400      -1.61106100
O        1.48557000       2.30335300      -1.10742200
O       -0.93669100       1.85713100      -1.46293600
O        0.15843400       1.05318900       0.56097600
H       -2.23075500       0.93994000      -0.66527400
H        1.10044100      -0.34019800       0.98307500
S       -1.40081600      -2.58829500      -0.30863000
O       -2.39794100      -2.03010200       0.64284500
O       -0.13796800      -3.01832300       0.33478100
O       -1.18727100      -1.66443000      -1.46175600
H        0.02942700      -0.60480800      -1.60164000
C       -2.12343200      -4.06511500      -0.99442000
H       -2.30662800      -4.76201300      -0.17645400
H       -3.05633800      -3.79310900      -1.48804700
H       -1.41603400      -4.48510100      -1.70952000
H        5.32620900       0.18804900      -2.00904700
H        2.92292800       1.69670100      -1.65366100
C        4.36983700       0.41807800      -1.52109400
O        3.80327200       1.46000100      -2.06401200
O        3.94994100      -0.24603700      -0.58761900
H       -3.58259900       0.98552000       1.96303900
H       -1.89446900       1.43624700       1.59606900
H       -3.35813700       3.48076900       1.73885700
H       -2.66668000       3.25735100       0.12579100
H       -5.44479500       2.75238200       0.88786500
H       -4.85770000       3.53584200      -0.42341000
H       -2.77500200      -0.40817300       0.21460400
H       -3.87081100       0.72574300      -0.43773800
C       -2.91903300       1.44109900       1.22288100
C       -3.37958900       2.84374100       0.84556600
N       -2.95481500       0.59931200       0.00251700
N       -4.69462400       2.75915200       0.20539700
H        3.75513700       0.37982200       2.02491800
H        3.58052800      -0.15868500       3.70053500
H        3.19434800      -2.04648600       2.22887200
H        1.66148800      -1.60983100       3.02893400
H        2.47122700      -0.90869900       0.26696500
H        1.21380600      -1.96202300       0.72050400
H        2.36487600       1.80745500       3.58080400
H        1.54489800       1.38145300       2.23225000
C        3.02657900       0.04375500       2.77862600
C        2.42361400      -1.27797900       2.32105000
N        1.98096800       1.01684000       3.07695100
N        1.77437200      -1.13242400       0.99498000
45
1sa1msa1fa2eda-629
S        1.73620500       1.81510300      -0.11466600
O        1.46731000       3.21047700       0.18075800
O        2.48788900       1.07136000       0.92698200
O        0.50907000       1.04454800      -0.49888800
O        2.65977000       1.82196900      -1.42402600
H        2.89282800       0.88809100      -1.62966900
S       -2.98343500      -1.47523800      -0.39080400
O       -2.02004300      -2.42814800      -1.01206100
O       -3.41724600      -0.39694200      -1.32232800
O       -2.48790100      -0.93749400       0.89755800
C       -4.44697800      -2.43333600      -0.04198700
H       -4.81799200      -2.84432600      -0.98093900
H       -4.17425500      -3.23167200       0.64829500
H       -5.18666200      -1.77050100       0.40729700
H        4.66177400      -2.21566700      -0.86734900
H        3.57629800      -0.06905300       0.67162000
C        4.03943100      -1.33118400      -0.68920300
O        4.18664600      -0.85712800       0.52055900
O        3.30048900      -0.87506800      -1.55025000
H       -3.58583800       2.67725600       0.68439600
H       -2.58559100       1.38193200       1.39070100
H       -2.04757400       3.76859000       2.24677200
H       -0.66877500       2.88079000       1.60254300
H       -1.71582000       5.28996200       0.58830600
H       -0.38108200       4.44672200       0.11306400
H       -2.68904100       1.12308700      -0.96962500
H       -2.12449600       2.74082500      -1.16064700
C       -2.56861700       2.28935100       0.78428500
C       -1.61644900       3.35398500       1.32935400
N       -2.11446200       1.90244300      -0.57475700
N       -1.37496700       4.37885500       0.31233800
H       -1.12562400       1.57915800      -0.54615500
H        1.32517800      -1.14675000       1.52489500
H       -0.39042300      -1.61913500       1.54953300
H        1.00808900      -3.43257900       2.54081400
H        0.25417800      -3.98038400       1.03977400
H        3.05079000      -3.16014800       1.34080200
H        2.46491600      -4.57114500       0.75153600
H        0.55943300      -0.66845500      -0.54902700
H        1.31478000      -2.15458800      -0.76684000
C        0.59287700      -1.86397400       1.14371000
C        1.00234300      -3.29486800       1.45162800
N        0.51801400      -1.68363500      -0.32872900
N        2.28965900      -3.57494600       0.81101000
H       -0.39063300      -2.05732500      -0.69476400
