1msa_4mea.log
 OpenBabel11151907293D
Gaussian 09 #p opt freq wB97XD/6-31++G(d,p) iop(5/13=1) iop(1/11=1)
 53 48  0  0  0  0  0  0  0  0999 V2000
    2.9256   -0.7088   -1.3603 N   0  0  0  0  0  0  0  0  0  0  0  0
    4.1430   -0.8305   -0.5578 C   0  0  0  0  0  0  0  0  0  0  0  0
    3.0503   -1.0758   -2.2978 H   0  0  0  0  0  0  0  0  0  0  0  0
    2.6551    0.2695   -1.4542 H   0  0  0  0  0  0  0  0  0  0  0  0
    4.3223   -1.8918   -0.3518 H   0  0  0  0  0  0  0  0  0  0  0  0
    5.0345   -0.4376   -1.0714 H   0  0  0  0  0  0  0  0  0  0  0  0
    4.0108   -0.0857    0.7652 C   0  0  0  0  0  0  0  0  0  0  0  0
    4.9640   -0.1635    1.3017 H   0  0  0  0  0  0  0  0  0  0  0  0
    1.3120    4.3351    0.4900 H   0  0  0  0  0  0  0  0  0  0  0  0
    2.9915   -0.6065    1.5924 O   0  0  0  0  0  0  0  0  0  0  0  0
    2.2393    0.0072    1.5858 H   0  0  0  0  0  0  0  0  0  0  0  0
    0.5423   -1.5796   -0.0890 N   0  0  0  0  0  0  0  0  0  0  0  0
    0.7587   -2.8703    0.5978 C   0  0  0  0  0  0  0  0  0  0  0  0
   -0.3556   -1.5481   -0.6504 H   0  0  0  0  0  0  0  0  0  0  0  0
    1.3670   -1.3397   -0.6975 H   0  0  0  0  0  0  0  0  0  0  0  0
    0.5717   -3.6659   -0.1282 H   0  0  0  0  0  0  0  0  0  0  0  0
    1.8040   -2.9052    0.9178 H   0  0  0  0  0  0  0  0  0  0  0  0
   -0.1607   -3.0213    1.8024 C   0  0  0  0  0  0  0  0  0  0  0  0
    0.0331   -3.9978    2.2618 H   0  0  0  0  0  0  0  0  0  0  0  0
    0.0999   -2.2526    2.5459 H   0  0  0  0  0  0  0  0  0  0  0  0
   -1.5176   -2.9404    1.4492 O   0  0  0  0  0  0  0  0  0  0  0  0
   -1.8236   -2.0276    1.6680 H   0  0  0  0  0  0  0  0  0  0  0  0
    0.5457    2.1090    0.3506 S   0  0  0  0  0  0  0  0  0  0  0  0
   -0.8583    2.5353    0.1720 O   0  0  0  0  0  0  0  0  0  0  0  0
    1.2651    1.8662   -0.9235 O   0  0  0  0  0  0  0  0  0  0  0  0
    0.6623    0.9526    1.2962 O   0  0  0  0  0  0  0  0  0  0  0  0
    0.4964   -0.7980    0.5775 H   0  0  0  0  0  0  0  0  0  0  0  0
    1.3818    3.4679    1.1467 C   0  0  0  0  0  0  0  0  0  0  0  0
    2.4238    3.1881    1.3051 H   0  0  0  0  0  0  0  0  0  0  0  0
    3.8351    0.9804    0.5588 H   0  0  0  0  0  0  0  0  0  0  0  0
    0.8862    3.6605    2.0981 H   0  0  0  0  0  0  0  0  0  0  0  0
   -1.9207   -1.3915   -1.4692 N   0  0  0  0  0  0  0  0  0  0  0  0
   -1.7981   -1.1802   -2.9136 C   0  0  0  0  0  0  0  0  0  0  0  0
   -2.4145   -2.2528   -1.2547 H   0  0  0  0  0  0  0  0  0  0  0  0
   -2.4560   -0.6195   -1.0647 H   0  0  0  0  0  0  0  0  0  0  0  0
   -1.2640   -2.0318   -3.3496 H   0  0  0  0  0  0  0  0  0  0  0  0
   -2.7745   -1.1048   -3.4152 H   0  0  0  0  0  0  0  0  0  0  0  0
   -1.0133    0.0910   -3.2027 C   0  0  0  0  0  0  0  0  0  0  0  0
   -1.0215    0.2729   -4.2862 H   0  0  0  0  0  0  0  0  0  0  0  0
   -1.5102    0.9426   -2.7192 H   0  0  0  0  0  0  0  0  0  0  0  0
    0.3193   -0.0385   -2.7487 O   0  0  0  0  0  0  0  0  0  0  0  0
    0.5588    0.7303   -2.2060 H   0  0  0  0  0  0  0  0  0  0  0  0
   -2.2116   -0.2950    1.9052 N   0  0  0  0  0  0  0  0  0  0  0  0
   -3.6122   -0.1188    1.5021 C   0  0  0  0  0  0  0  0  0  0  0  0
   -2.0351    0.1395    2.8050 H   0  0  0  0  0  0  0  0  0  0  0  0
   -1.5903    0.1841    1.2556 H   0  0  0  0  0  0  0  0  0  0  0  0
   -3.8986   -0.9565    0.8535 H   0  0  0  0  0  0  0  0  0  0  0  0
   -4.2481   -0.1785    2.3915 H   0  0  0  0  0  0  0  0  0  0  0  0
   -3.8818    1.1800    0.7495 C   0  0  0  0  0  0  0  0  0  0  0  0
   -4.9497    1.2520    0.5137 H   0  0  0  0  0  0  0  0  0  0  0  0
   -3.6105    2.0430    1.3718 H   0  0  0  0  0  0  0  0  0  0  0  0
   -3.1627    1.2070   -0.4706 O   0  0  0  0  0  0  0  0  0  0  0  0
   -2.3472    1.7265   -0.3455 H   0  0  0  0  0  0  0  0  0  0  0  0
  1  2  1  0  0  0  0
  2  5  1  0  0  0  0
  2  7  1  0  0  0  0
  3  1  1  0  0  0  0
  4  1  1  0  0  0  0
  6  2  1  0  0  0  0
  7  8  1  0  0  0  0
  7 10  1  0  0  0  0
  9 28  1  0  0  0  0
 11 10  1  0  0  0  0
 12 27  1  0  0  0  0
 12 13  1  0  0  0  0
 13 17  1  0  0  0  0
 13 18  1  0  0  0  0
 14 12  1  0  0  0  0
 15 12  1  0  0  0  0
 16 13  1  0  0  0  0
 18 19  1  0  0  0  0
 18 20  1  0  0  0  0
 21 22  1  0  0  0  0
 21 18  1  0  0  0  0
 23 28  1  0  0  0  0
 23 26  1  0  0  0  0
 24 23  2  0  0  0  0
 25 23  2  0  0  0  0
 28 29  1  0  0  0  0
 28 31  1  0  0  0  0
 30  7  1  0  0  0  0
 32 34  1  0  0  0  0
 32 35  1  0  0  0  0
 33 32  1  0  0  0  0
 36 33  1  0  0  0  0
 37 33  1  0  0  0  0
 38 33  1  0  0  0  0
 38 41  1  0  0  0  0
 38 40  1  0  0  0  0
 39 38  1  0  0  0  0
 41 42  1  0  0  0  0
 43 45  1  0  0  0  0
 44 43  1  0  0  0  0
 44 48  1  0  0  0  0
 46 43  1  0  0  0  0
 47 44  1  0  0  0  0
 49 51  1  0  0  0  0
 49 44  1  0  0  0  0
 50 49  1  0  0  0  0
 52 53  1  0  0  0  0
 52 49  1  0  0  0  0
M  RAD  1  26   2
M  END
$$$$
