2msa.log
 OpenBabel11151907293D
Gaussian 09 #p opt freq wB97XD/6-31++G(d,p) iop(5/13=1) iop(1/11=1)
 18 16  0  0  0  0  0  0  0  0999 V2000
   -1.8636    0.0882    0.0559 S   0  0  0  0  0  0  0  0  0  0  0  0
   -1.6122    1.5084   -0.1184 O   0  0  0  0  0  0  0  0  0  0  0  0
   -1.2071   -0.5662    1.1961 O   0  0  0  0  0  0  0  0  0  0  0  0
   -1.5093   -0.7120   -1.2665 O   0  0  0  0  0  0  0  0  0  0  0  0
   -0.5159   -0.7486   -1.3432 H   0  0  0  0  0  0  0  0  0  0  0  0
   -3.6023   -0.2345    0.1290 C   0  0  0  0  0  0  0  0  0  0  0  0
   -3.9776    0.2787    1.0148 H   0  0  0  0  0  0  0  0  0  0  0  0
   -4.0590    0.1681   -0.7748 H   0  0  0  0  0  0  0  0  0  0  0  0
   -3.7510   -1.3106    0.2082 H   0  0  0  0  0  0  0  0  0  0  0  0
    2.0411   -0.1195   -0.0751 S   0  0  0  0  0  0  0  0  0  0  0  0
    1.1360   -0.6197   -1.1205 O   0  0  0  0  0  0  0  0  0  0  0  0
    3.4368   -0.4729   -0.1382 O   0  0  0  0  0  0  0  0  0  0  0  0
    1.4940   -0.5985    1.3383 O   0  0  0  0  0  0  0  0  0  0  0  0
    0.5029   -0.6273    1.3470 H   0  0  0  0  0  0  0  0  0  0  0  0
    1.8615    1.6482   -0.0066 C   0  0  0  0  0  0  0  0  0  0  0  0
    0.8020    1.8907    0.0998 H   0  0  0  0  0  0  0  0  0  0  0  0
    2.4445    2.0115    0.8395 H   0  0  0  0  0  0  0  0  0  0  0  0
    2.2544    2.0432   -0.9445 H   0  0  0  0  0  0  0  0  0  0  0  0
  1  6  1  0  0  0  0
  1  3  2  0  0  0  0
  2  1  2  0  0  0  0
  4  1  1  0  0  0  0
  5  4  1  0  0  0  0
  6  9  1  0  0  0  0
  6  7  1  0  0  0  0
  8  6  1  0  0  0  0
 10 15  1  0  0  0  0
 10 13  1  0  0  0  0
 11 10  2  0  0  0  0
 12 10  2  0  0  0  0
 13 14  1  0  0  0  0
 15 16  1  0  0  0  0
 15 17  1  0  0  0  0
 18 15  1  0  0  0  0
M  END
$$$$
