2msa_3mea.log
 OpenBabel11151907293D
Gaussian 09 #p opt freq wB97XD/6-31++G(d,p) iop(5/13=1) iop(1/11=1)
 51 46  0  0  0  0  0  0  0  0999 V2000
    0.9195   -1.7522   -0.5202 N   0  0  0  0  0  0  0  0  0  0  0  0
    1.7567   -2.7382   -1.2422 C   0  0  0  0  0  0  0  0  0  0  0  0
    1.1792   -1.7011    0.5045 H   0  0  0  0  0  0  0  0  0  0  0  0
   -0.0891   -1.9904   -0.5974 H   0  0  0  0  0  0  0  0  0  0  0  0
    1.7587   -3.6639   -0.6616 H   0  0  0  0  0  0  0  0  0  0  0  0
    1.2929   -2.9359   -2.2127 H   0  0  0  0  0  0  0  0  0  0  0  0
    3.1797   -2.2262   -1.4362 C   0  0  0  0  0  0  0  0  0  0  0  0
    3.7439   -2.9939   -1.9765 H   0  0  0  0  0  0  0  0  0  0  0  0
    3.1558   -1.3236   -2.0615 H   0  0  0  0  0  0  0  0  0  0  0  0
    3.8353   -1.9827   -0.2150 O   0  0  0  0  0  0  0  0  0  0  0  0
    3.6954   -1.0526    0.0373 H   0  0  0  0  0  0  0  0  0  0  0  0
    2.4943    1.5590   -0.4382 S   0  0  0  0  0  0  0  0  0  0  0  0
    3.1648    0.6464    0.5238 O   0  0  0  0  0  0  0  0  0  0  0  0
    1.7390    2.6565    0.2120 O   0  0  0  0  0  0  0  0  0  0  0  0
    1.6485    0.8225   -1.4221 O   0  0  0  0  0  0  0  0  0  0  0  0
    1.0604   -0.8018   -0.9080 H   0  0  0  0  0  0  0  0  0  0  0  0
    3.8016    2.3263   -1.3788 C   0  0  0  0  0  0  0  0  0  0  0  0
    4.3728    1.5418   -1.8763 H   0  0  0  0  0  0  0  0  0  0  0  0
    3.3502    2.9969   -2.1102 H   0  0  0  0  0  0  0  0  0  0  0  0
    4.4341    2.8814   -0.6858 H   0  0  0  0  0  0  0  0  0  0  0  0
   -2.8050   -1.3487   -0.4544 S   0  0  0  0  0  0  0  0  0  0  0  0
   -1.7887   -2.3918   -0.7275 O   0  0  0  0  0  0  0  0  0  0  0  0
   -2.6082   -0.1347   -1.3000 O   0  0  0  0  0  0  0  0  0  0  0  0
   -2.9197   -1.0117    0.9905 O   0  0  0  0  0  0  0  0  0  0  0  0
   -3.6257    1.3465   -1.0824 H   0  0  0  0  0  0  0  0  0  0  0  0
   -4.3791   -2.0352   -0.9289 C   0  0  0  0  0  0  0  0  0  0  0  0
   -4.5491   -2.9355   -0.3386 H   0  0  0  0  0  0  0  0  0  0  0  0
   -5.1485   -1.2894   -0.7270 H   0  0  0  0  0  0  0  0  0  0  0  0
   -4.3371   -2.2702   -1.9925 H   0  0  0  0  0  0  0  0  0  0  0  0
   -0.9434    2.0417   -0.2752 N   0  0  0  0  0  0  0  0  0  0  0  0
   -1.8743    3.0771    0.2388 C   0  0  0  0  0  0  0  0  0  0  0  0
    0.0021    2.4208   -0.4450 H   0  0  0  0  0  0  0  0  0  0  0  0
   -1.3061    1.5608   -1.1040 H   0  0  0  0  0  0  0  0  0  0  0  0
   -1.4596    3.4371    1.1842 H   0  0  0  0  0  0  0  0  0  0  0  0
   -1.8967    3.9010   -0.4775 H   0  0  0  0  0  0  0  0  0  0  0  0
   -3.2803    2.5176    0.4270 C   0  0  0  0  0  0  0  0  0  0  0  0
   -3.2468    1.6260    1.0692 H   0  0  0  0  0  0  0  0  0  0  0  0
   -3.8776    3.2803    0.9364 H   0  0  0  0  0  0  0  0  0  0  0  0
   -3.9007    2.2384   -0.8030 O   0  0  0  0  0  0  0  0  0  0  0  0
   -0.7932    1.2928    0.4430 H   0  0  0  0  0  0  0  0  0  0  0  0
    1.7868   -1.5216    2.1710 N   0  0  0  0  0  0  0  0  0  0  0  0
    0.8157   -1.1197    3.1877 C   0  0  0  0  0  0  0  0  0  0  0  0
    2.3325   -2.3242    2.4661 H   0  0  0  0  0  0  0  0  0  0  0  0
    2.4391   -0.7618    1.9760 H   0  0  0  0  0  0  0  0  0  0  0  0
    0.0730   -1.9181    3.2986 H   0  0  0  0  0  0  0  0  0  0  0  0
    1.2712   -0.9504    4.1754 H   0  0  0  0  0  0  0  0  0  0  0  0
    0.1174    0.1670    2.7712 C   0  0  0  0  0  0  0  0  0  0  0  0
   -0.5940    0.4688    3.5502 H   0  0  0  0  0  0  0  0  0  0  0  0
    0.8558    0.9673    2.6505 H   0  0  0  0  0  0  0  0  0  0  0  0
   -0.5332    0.0430    1.5188 O   0  0  0  0  0  0  0  0  0  0  0  0
   -1.3845   -0.4470    1.5660 H   0  0  0  0  0  0  0  0  0  0  0  0
  1  3  1  0  0  0  0
  2  5  1  0  0  0  0
  2  1  1  0  0  0  0
  4  1  1  0  0  0  0
  6  2  1  0  0  0  0
  7  2  1  0  0  0  0
  7 10  1  0  0  0  0
  8  7  1  0  0  0  0
  9  7  1  0  0  0  0
 10 11  1  0  0  0  0
 12 14  2  0  0  0  0
 12 13  1  0  0  0  0
 15 12  2  0  0  0  0
 16  1  1  0  0  0  0
 17 20  1  0  0  0  0
 17 12  1  0  0  0  0
 18 17  1  0  0  0  0
 19 17  1  0  0  0  0
 21 24  1  0  0  0  0
 22 21  2  0  0  0  0
 23 21  2  0  0  0  0
 25 39  1  0  0  0  0
 26 28  1  0  0  0  0
 26 21  1  0  0  0  0
 26 27  1  0  0  0  0
 29 26  1  0  0  0  0
 30 31  1  0  0  0  0
 30 40  1  0  0  0  0
 31 36  1  0  0  0  0
 31 34  1  0  0  0  0
 32 30  1  0  0  0  0
 33 30  1  0  0  0  0
 35 31  1  0  0  0  0
 36 38  1  0  0  0  0
 36 37  1  0  0  0  0
 39 36  1  0  0  0  0
 41 43  1  0  0  0  0
 41 42  1  0  0  0  0
 42 45  1  0  0  0  0
 42 46  1  0  0  0  0
 44 41  1  0  0  0  0
 47 42  1  0  0  0  0
 47 48  1  0  0  0  0
 49 47  1  0  0  0  0
 50 51  1  0  0  0  0
 50 47  1  0  0  0  0
M  RAD  2  13   2  24   2
M  END
$$$$
