3msa.log
 OpenBabel11151907293D
Gaussian 09 #p opt freq wB97XD/6-31++G(d,p) iop(5/13=1) iop(1/11=1)
 27 24  0  0  0  0  0  0  0  0999 V2000
   -0.9571    2.0991    0.1138 S   0  0  0  0  0  0  0  0  0  0  0  0
    0.0443    2.0863    1.1636 O   0  0  0  0  0  0  0  0  0  0  0  0
   -2.2775    1.5201    0.3853 O   0  0  0  0  0  0  0  0  0  0  0  0
   -0.4029    1.4017   -1.1900 O   0  0  0  0  0  0  0  0  0  0  0  0
    0.5261    1.0246   -1.0580 H   0  0  0  0  0  0  0  0  0  0  0  0
   -1.2301    3.7607   -0.4446 C   0  0  0  0  0  0  0  0  0  0  0  0
   -1.9082    3.7304   -1.2970 H   0  0  0  0  0  0  0  0  0  0  0  0
   -1.6774    4.3072    0.3863 H   0  0  0  0  0  0  0  0  0  0  0  0
   -0.2666    4.1891   -0.7194 H   0  0  0  0  0  0  0  0  0  0  0  0
   -1.6974   -1.8980    0.1065 S   0  0  0  0  0  0  0  0  0  0  0  0
   -1.9218   -3.2847    0.4313 O   0  0  0  0  0  0  0  0  0  0  0  0
   -0.4059   -1.2785    0.4515 O   0  0  0  0  0  0  0  0  0  0  0  0
   -2.8310   -1.0468    0.8052 O   0  0  0  0  0  0  0  0  0  0  0  0
   -2.6215   -0.0754    0.7476 H   0  0  0  0  0  0  0  0  0  0  0  0
   -1.9714   -1.6182   -1.6277 C   0  0  0  0  0  0  0  0  0  0  0  0
   -1.2302   -2.2074   -2.1698 H   0  0  0  0  0  0  0  0  0  0  0  0
   -2.9810   -1.9516   -1.8673 H   0  0  0  0  0  0  0  0  0  0  0  0
   -1.8355   -0.5541   -1.8261 H   0  0  0  0  0  0  0  0  0  0  0  0
    2.7976   -0.3654   -0.1318 S   0  0  0  0  0  0  0  0  0  0  0  0
    1.9813    0.4723   -1.0277 O   0  0  0  0  0  0  0  0  0  0  0  0
    4.1826   -0.5642   -0.4779 O   0  0  0  0  0  0  0  0  0  0  0  0
    2.1285   -1.7977   -0.0228 O   0  0  0  0  0  0  0  0  0  0  0  0
    1.1491   -1.7151    0.1298 H   0  0  0  0  0  0  0  0  0  0  0  0
    2.6502    0.2846    1.5143 C   0  0  0  0  0  0  0  0  0  0  0  0
    3.1132    1.2718    1.5102 H   0  0  0  0  0  0  0  0  0  0  0  0
    1.5915    0.3697    1.7633 H   0  0  0  0  0  0  0  0  0  0  0  0
    3.1792   -0.3917    2.1854 H   0  0  0  0  0  0  0  0  0  0  0  0
  1  3  2  0  0  0  0
  1  2  2  0  0  0  0
  4  5  1  0  0  0  0
  4  1  1  0  0  0  0
  6  1  1  0  0  0  0
  6  8  1  0  0  0  0
  7  6  1  0  0  0  0
  9  6  1  0  0  0  0
 10 11  2  0  0  0  0
 10 12  2  0  0  0  0
 10 13  1  0  0  0  0
 14 13  1  0  0  0  0
 15 10  1  0  0  0  0
 16 15  1  0  0  0  0
 17 15  1  0  0  0  0
 18 15  1  0  0  0  0
 19 22  1  0  0  0  0
 19 24  1  0  0  0  0
 20 19  2  0  0  0  0
 21 19  2  0  0  0  0
 22 23  1  0  0  0  0
 24 26  1  0  0  0  0
 24 27  1  0  0  0  0
 25 24  1  0  0  0  0
M  END
$$$$
