3msa_4mea.log
 OpenBabel11151907293D
Gaussian 09 #p opt freq wb97xd/6-31++g(d,p) iop(5/13=1,1/11=1)
 71 64  0  0  0  0  0  0  0  0999 V2000
    1.0748    1.3520    0.9724 N   0  0  0  0  0  0  0  0  0  0  0  0
    1.0297    2.2934    2.1220 C   0  0  0  0  0  0  0  0  0  0  0  0
    0.4193    0.5607    1.0904 H   0  0  0  0  0  0  0  0  0  0  0  0
    2.0268    0.9625    0.8443 H   0  0  0  0  0  0  0  0  0  0  0  0
    0.0402    2.7562    2.1041 H   0  0  0  0  0  0  0  0  0  0  0  0
    1.1549    1.7198    3.0433 H   0  0  0  0  0  0  0  0  0  0  0  0
    2.1303    3.3434    2.0143 C   0  0  0  0  0  0  0  0  0  0  0  0
    2.1268    3.7674    0.9987 H   0  0  0  0  0  0  0  0  0  0  0  0
    1.8929    4.1529    2.7097 H   0  0  0  0  0  0  0  0  0  0  0  0
    3.4038    2.8697    2.3822 O   0  0  0  0  0  0  0  0  0  0  0  0
    3.6926    2.1700    1.7759 H   0  0  0  0  0  0  0  0  0  0  0  0
    4.2227   -0.1135   -0.4476 S   0  0  0  0  0  0  0  0  0  0  0  0
    4.1745   -1.5954   -0.3595 O   0  0  0  0  0  0  0  0  0  0  0  0
    3.7371    0.5264    0.8120 O   0  0  0  0  0  0  0  0  0  0  0  0
    3.5274    0.4224   -1.6427 O   0  0  0  0  0  0  0  0  0  0  0  0
    0.7868    1.8565    0.1105 H   0  0  0  0  0  0  0  0  0  0  0  0
    5.9394    0.3279   -0.6020 C   0  0  0  0  0  0  0  0  0  0  0  0
    6.3284   -0.1419   -1.5053 H   0  0  0  0  0  0  0  0  0  0  0  0
    6.0059    1.4137   -0.6720 H   0  0  0  0  0  0  0  0  0  0  0  0
    6.4612   -0.0384    0.2821 H   0  0  0  0  0  0  0  0  0  0  0  0
   -1.1377   -1.9800    1.7753 S   0  0  0  0  0  0  0  0  0  0  0  0
   -0.6446   -0.8203    0.9644 O   0  0  0  0  0  0  0  0  0  0  0  0
   -0.0032   -2.7954    2.2647 O   0  0  0  0  0  0  0  0  0  0  0  0
   -2.1393   -2.7712    1.0094 O   0  0  0  0  0  0  0  0  0  0  0  0
    1.0846   -1.9335   -0.5978 H   0  0  0  0  0  0  0  0  0  0  0  0
   -1.9921   -1.2957    3.1735 C   0  0  0  0  0  0  0  0  0  0  0  0
   -1.2717   -0.7318    3.7669 H   0  0  0  0  0  0  0  0  0  0  0  0
   -2.7757   -0.6448    2.7779 H   0  0  0  0  0  0  0  0  0  0  0  0
   -2.4042   -2.1218    3.7532 H   0  0  0  0  0  0  0  0  0  0  0  0
    1.6412   -2.6513   -0.0988 N   0  0  0  0  0  0  0  0  0  0  0  0
    1.5621   -3.9509   -0.8095 C   0  0  0  0  0  0  0  0  0  0  0  0
    2.6217   -2.2912   -0.0890 H   0  0  0  0  0  0  0  0  0  0  0  0
    1.2675   -2.7216    0.8637 H   0  0  0  0  0  0  0  0  0  0  0  0
    1.8088   -3.7611   -1.8564 H   0  0  0  0  0  0  0  0  0  0  0  0
    2.3160   -4.6196   -0.3872 H   0  0  0  0  0  0  0  0  0  0  0  0
    0.1734   -4.5607   -0.6804 C   0  0  0  0  0  0  0  0  0  0  0  0
    0.1643   -5.5094   -1.2301 H   0  0  0  0  0  0  0  0  0  0  0  0
   -0.0378   -4.7751    0.3744 H   0  0  0  0  0  0  0  0  0  0  0  0
   -0.7998   -3.6909   -1.2156 O   0  0  0  0  0  0  0  0  0  0  0  0
   -1.3943   -3.4147   -0.4918 H   0  0  0  0  0  0  0  0  0  0  0  0
   -1.9196   -0.3201   -1.5141 N   0  0  0  0  0  0  0  0  0  0  0  0
   -1.1674   -0.7832   -2.7016 C   0  0  0  0  0  0  0  0  0  0  0  0
   -2.8479   -0.7993   -1.3913 H   0  0  0  0  0  0  0  0  0  0  0  0
   -2.1006    0.7027   -1.5780 H   0  0  0  0  0  0  0  0  0  0  0  0
   -1.0170   -1.8612   -2.6045 H   0  0  0  0  0  0  0  0  0  0  0  0
   -1.7730   -0.5751   -3.5871 H   0  0  0  0  0  0  0  0  0  0  0  0
    0.1637   -0.0658   -2.8116 C   0  0  0  0  0  0  0  0  0  0  0  0
    0.6561   -0.3911   -3.7368 H   0  0  0  0  0  0  0  0  0  0  0  0
    0.0110    1.0202   -2.8553 H   0  0  0  0  0  0  0  0  0  0  0  0
    0.9475   -0.4006   -1.6802 O   0  0  0  0  0  0  0  0  0  0  0  0
    1.8506   -0.0253   -1.7721 H   0  0  0  0  0  0  0  0  0  0  0  0
   -1.4818    3.1546   -0.7601 S   0  0  0  0  0  0  0  0  0  0  0  0
   -1.8690    2.8363    0.6399 O   0  0  0  0  0  0  0  0  0  0  0  0
   -2.3105    2.4212   -1.7549 O   0  0  0  0  0  0  0  0  0  0  0  0
   -0.0246    2.9816   -0.9951 O   0  0  0  0  0  0  0  0  0  0  0  0
   -1.3974   -0.4945   -0.6357 H   0  0  0  0  0  0  0  0  0  0  0  0
   -1.8288    4.8841   -1.0146 C   0  0  0  0  0  0  0  0  0  0  0  0
   -1.2267    5.4599   -0.3115 H   0  0  0  0  0  0  0  0  0  0  0  0
   -1.5653    5.1329   -2.0426 H   0  0  0  0  0  0  0  0  0  0  0  0
   -2.8919    5.0470   -0.8372 H   0  0  0  0  0  0  0  0  0  0  0  0
   -4.3357   -1.5424   -0.6482 N   0  0  0  0  0  0  0  0  0  0  0  0
   -5.2965   -0.5826   -0.0857 C   0  0  0  0  0  0  0  0  0  0  0  0
   -4.8223   -2.3191   -1.0827 H   0  0  0  0  0  0  0  0  0  0  0  0
   -3.7587   -1.9395    0.0956 H   0  0  0  0  0  0  0  0  0  0  0  0
   -6.1188   -0.4471   -0.7959 H   0  0  0  0  0  0  0  0  0  0  0  0
   -5.7293   -0.9461    0.8570 H   0  0  0  0  0  0  0  0  0  0  0  0
   -4.6455    0.7707    0.1477 C   0  0  0  0  0  0  0  0  0  0  0  0
   -5.3805    1.4479    0.6074 H   0  0  0  0  0  0  0  0  0  0  0  0
   -4.3388    1.2116   -0.8106 H   0  0  0  0  0  0  0  0  0  0  0  0
   -3.5229    0.5917    0.9880 O   0  0  0  0  0  0  0  0  0  0  0  0
   -2.9615    1.3885    0.9433 H   0  0  0  0  0  0  0  0  0  0  0  0
  1  3  1  0  0  0  0
  1  2  1  0  0  0  0
  2  6  1  0  0  0  0
  4  1  1  0  0  0  0
  5  2  1  0  0  0  0
  7  2  1  0  0  0  0
  7 10  1  0  0  0  0
  7  9  1  0  0  0  0
  8  7  1  0  0  0  0
 11 10  1  0  0  0  0
 12 13  2  0  0  0  0
 12 14  1  0  0  0  0
 15 12  2  0  0  0  0
 16  1  1  0  0  0  0
 17 12  1  0  0  0  0
 17 20  1  0  0  0  0
 18 17  1  0  0  0  0
 19 17  1  0  0  0  0
 21 23  1  0  0  0  0
 21 26  1  0  0  0  0
 22 21  2  0  0  0  0
 24 21  2  0  0  0  0
 25 30  1  0  0  0  0
 26 29  1  0  0  0  0
 26 27  1  0  0  0  0
 28 26  1  0  0  0  0
 30 32  1  0  0  0  0
 30 33  1  0  0  0  0
 31 36  1  0  0  0  0
 31 35  1  0  0  0  0
 31 30  1  0  0  0  0
 34 31  1  0  0  0  0
 36 38  1  0  0  0  0
 37 36  1  0  0  0  0
 39 36  1  0  0  0  0
 39 40  1  0  0  0  0
 41 43  1  0  0  0  0
 41 56  1  0  0  0  0
 42 45  1  0  0  0  0
 42 41  1  0  0  0  0
 44 41  1  0  0  0  0
 46 42  1  0  0  0  0
 47 42  1  0  0  0  0
 47 50  1  0  0  0  0
 48 47  1  0  0  0  0
 49 47  1  0  0  0  0
 51 50  1  0  0  0  0
 52 53  1  0  0  0  0
 54 52  2  0  0  0  0
 55 52  2  0  0  0  0
 57 60  1  0  0  0  0
 57 52  1  0  0  0  0
 57 58  1  0  0  0  0
 59 57  1  0  0  0  0
 61 62  1  0  0  0  0
 61 64  1  0  0  0  0
 62 67  1  0  0  0  0
 62 66  1  0  0  0  0
 63 61  1  0  0  0  0
 65 62  1  0  0  0  0
 67 68  1  0  0  0  0
 67 70  1  0  0  0  0
 69 67  1  0  0  0  0
 71 70  1  0  0  0  0
M  RAD  3  14   2  23   2  53   2
M  END
$$$$
