4msa_4mea.log
 OpenBabel11151907293D
Gaussian 09 #p opt freq wb97xd/6-31++g(d,p) iop(5/13=1,1/11=1)
 80 72  0  0  0  0  0  0  0  0999 V2000
   -1.7552   -1.3094    1.0934 N   0  0  0  0  0  0  0  0  0  0  0  0
   -1.9245   -2.6273    1.7667 C   0  0  0  0  0  0  0  0  0  0  0  0
   -0.8792   -0.8421    1.3829 H   0  0  0  0  0  0  0  0  0  0  0  0
   -2.5555   -0.6818    1.2878 H   0  0  0  0  0  0  0  0  0  0  0  0
   -1.1296   -3.2722    1.3846 H   0  0  0  0  0  0  0  0  0  0  0  0
   -1.8030   -2.4800    2.8420 H   0  0  0  0  0  0  0  0  0  0  0  0
   -3.2970   -3.2229    1.4712 C   0  0  0  0  0  0  0  0  0  0  0  0
   -3.4962   -3.1420    0.3921 H   0  0  0  0  0  0  0  0  0  0  0  0
   -3.2645   -4.2860    1.7241 H   0  0  0  0  0  0  0  0  0  0  0  0
   -4.3331   -2.6607    2.2407 O   0  0  0  0  0  0  0  0  0  0  0  0
   -4.4485   -1.7275    1.9950 H   0  0  0  0  0  0  0  0  0  0  0  0
   -4.7052    0.4363    0.0397 S   0  0  0  0  0  0  0  0  0  0  0  0
   -4.7593    1.9125   -0.0948 O   0  0  0  0  0  0  0  0  0  0  0  0
   -4.2313    0.0188    1.3953 O   0  0  0  0  0  0  0  0  0  0  0  0
   -3.9166   -0.2235   -1.0309 O   0  0  0  0  0  0  0  0  0  0  0  0
   -1.7050   -1.4720    0.0677 H   0  0  0  0  0  0  0  0  0  0  0  0
   -6.3760   -0.1567   -0.1112 C   0  0  0  0  0  0  0  0  0  0  0  0
   -6.7476    0.1234   -1.0969 H   0  0  0  0  0  0  0  0  0  0  0  0
   -6.3609   -1.2411    0.0042 H   0  0  0  0  0  0  0  0  0  0  0  0
   -6.9707    0.3079    0.6753 H   0  0  0  0  0  0  0  0  0  0  0  0
    0.6374    1.4719    1.7081 S   0  0  0  0  0  0  0  0  0  0  0  0
    0.7009   -0.0240    1.7476 O   0  0  0  0  0  0  0  0  0  0  0  0
   -0.6222    1.9895    2.2873 O   0  0  0  0  0  0  0  0  0  0  0  0
    0.8693    1.9764    0.3273 O   0  0  0  0  0  0  0  0  0  0  0  0
   -1.7572    2.4368   -0.6167 H   0  0  0  0  0  0  0  0  0  0  0  0
    1.9927    2.0560    2.6949 C   0  0  0  0  0  0  0  0  0  0  0  0
    1.8970    1.6251    3.6920 H   0  0  0  0  0  0  0  0  0  0  0  0
    2.9137    1.7466    2.1938 H   0  0  0  0  0  0  0  0  0  0  0  0
    1.9257    3.1436    2.7391 H   0  0  0  0  0  0  0  0  0  0  0  0
   -2.2176    2.9690    0.1465 N   0  0  0  0  0  0  0  0  0  0  0  0
   -2.1213    4.4296   -0.0801 C   0  0  0  0  0  0  0  0  0  0  0  0
   -3.2098    2.6450    0.1525 H   0  0  0  0  0  0  0  0  0  0  0  0
   -1.7545    2.6774    1.0274 H   0  0  0  0  0  0  0  0  0  0  0  0
   -2.5931    4.6404   -1.0422 H   0  0  0  0  0  0  0  0  0  0  0  0
   -2.6828    4.9368    0.7084 H   0  0  0  0  0  0  0  0  0  0  0  0
   -0.6654    4.8791   -0.0887 C   0  0  0  0  0  0  0  0  0  0  0  0
   -0.6368    5.9520   -0.3048 H   0  0  0  0  0  0  0  0  0  0  0  0
   -0.2265    4.7271    0.9068 H   0  0  0  0  0  0  0  0  0  0  0  0
    0.0733    4.1992   -1.0744 O   0  0  0  0  0  0  0  0  0  0  0  0
    0.5326    3.4633   -0.6354 H   0  0  0  0  0  0  0  0  0  0  0  0
    1.2391    0.6164   -2.0582 N   0  0  0  0  0  0  0  0  0  0  0  0
    0.3548    1.2527   -3.0627 C   0  0  0  0  0  0  0  0  0  0  0  0
    2.2160    0.9769   -2.0905 H   0  0  0  0  0  0  0  0  0  0  0  0
    1.2400   -0.4182   -2.1599 H   0  0  0  0  0  0  0  0  0  0  0  0
    0.3568    2.3297   -2.8754 H   0  0  0  0  0  0  0  0  0  0  0  0
    0.7700    1.0627   -4.0546 H   0  0  0  0  0  0  0  0  0  0  0  0
   -1.0501    0.6899   -2.9676 C   0  0  0  0  0  0  0  0  0  0  0  0
   -1.6740    1.1819   -3.7248 H   0  0  0  0  0  0  0  0  0  0  0  0
   -1.0411   -0.3887   -3.1599 H   0  0  0  0  0  0  0  0  0  0  0  0
   -1.5463    0.9344   -1.6643 O   0  0  0  0  0  0  0  0  0  0  0  0
   -2.3832    0.4372   -1.5340 H   0  0  0  0  0  0  0  0  0  0  0  0
   -0.0224   -2.9609   -1.6261 S   0  0  0  0  0  0  0  0  0  0  0  0
    0.5112   -3.4371   -0.3164 O   0  0  0  0  0  0  0  0  0  0  0  0
    0.9668   -2.1403   -2.3677 O   0  0  0  0  0  0  0  0  0  0  0  0
   -1.3401   -2.2947   -1.4832 O   0  0  0  0  0  0  0  0  0  0  0  0
    0.9111    0.8642   -1.1107 H   0  0  0  0  0  0  0  0  0  0  0  0
   -0.2995   -4.4202   -2.6100 C   0  0  0  0  0  0  0  0  0  0  0  0
    0.6583   -4.9211   -2.7506 H   0  0  0  0  0  0  0  0  0  0  0  0
   -0.9993   -5.0619   -2.0746 H   0  0  0  0  0  0  0  0  0  0  0  0
   -0.7174   -4.1083   -3.5672 H   0  0  0  0  0  0  0  0  0  0  0  0
    4.4995    0.6686   -0.7338 S   0  0  0  0  0  0  0  0  0  0  0  0
    4.3003    0.9303    0.7202 O   0  0  0  0  0  0  0  0  0  0  0  0
    3.7853    1.6266   -1.6096 O   0  0  0  0  0  0  0  0  0  0  0  0
    4.1891   -0.7466   -1.0758 O   0  0  0  0  0  0  0  0  0  0  0  0
    3.3007   -1.5921    0.1413 H   0  0  0  0  0  0  0  0  0  0  0  0
    6.2378    0.9028   -1.0481 C   0  0  0  0  0  0  0  0  0  0  0  0
    6.4858    1.9377   -0.8110 H   0  0  0  0  0  0  0  0  0  0  0  0
    6.7953    0.2145   -0.4122 H   0  0  0  0  0  0  0  0  0  0  0  0
    6.4228    0.6935   -2.1017 H   0  0  0  0  0  0  0  0  0  0  0  0
    2.5538   -1.9303    0.7876 N   0  0  0  0  0  0  0  0  0  0  0  0
    3.0712   -2.5978    2.0070 C   0  0  0  0  0  0  0  0  0  0  0  0
    1.9818   -1.1116    1.0572 H   0  0  0  0  0  0  0  0  0  0  0  0
    1.9164   -2.5611    0.2615 H   0  0  0  0  0  0  0  0  0  0  0  0
    2.2153   -3.0409    2.5240 H   0  0  0  0  0  0  0  0  0  0  0  0
    3.7490   -3.3940    1.6927 H   0  0  0  0  0  0  0  0  0  0  0  0
    3.7961   -1.6192    2.9240 C   0  0  0  0  0  0  0  0  0  0  0  0
    4.0313   -2.1486    3.8534 H   0  0  0  0  0  0  0  0  0  0  0  0
    3.1138   -0.7944    3.1790 H   0  0  0  0  0  0  0  0  0  0  0  0
    5.0000   -1.1516    2.3814 O   0  0  0  0  0  0  0  0  0  0  0  0
    4.8208   -0.3784    1.8122 H   0  0  0  0  0  0  0  0  0  0  0  0
  1  4  1  0  0  0  0
  1  3  1  0  0  0  0
  1  2  1  0  0  0  0
  2  6  1  0  0  0  0
  5  2  1  0  0  0  0
  7  9  1  0  0  0  0
  7  2  1  0  0  0  0
  7 10  1  0  0  0  0
  8  7  1  0  0  0  0
 11 10  1  0  0  0  0
 12 14  1  0  0  0  0
 13 12  2  0  0  0  0
 15 12  2  0  0  0  0
 16  1  1  0  0  0  0
 17 19  1  0  0  0  0
 17 12  1  0  0  0  0
 17 20  1  0  0  0  0
 18 17  1  0  0  0  0
 21 22  2  0  0  0  0
 21 23  1  0  0  0  0
 21 26  1  0  0  0  0
 24 21  2  0  0  0  0
 25 30  1  0  0  0  0
 26 29  1  0  0  0  0
 26 27  1  0  0  0  0
 28 26  1  0  0  0  0
 30 32  1  0  0  0  0
 30 33  1  0  0  0  0
 31 30  1  0  0  0  0
 31 35  1  0  0  0  0
 34 31  1  0  0  0  0
 36 31  1  0  0  0  0
 36 38  1  0  0  0  0
 37 36  1  0  0  0  0
 39 40  1  0  0  0  0
 39 36  1  0  0  0  0
 41 56  1  0  0  0  0
 42 47  1  0  0  0  0
 42 45  1  0  0  0  0
 42 41  1  0  0  0  0
 43 41  1  0  0  0  0
 44 41  1  0  0  0  0
 46 42  1  0  0  0  0
 47 50  1  0  0  0  0
 48 47  1  0  0  0  0
 49 47  1  0  0  0  0
 50 51  1  0  0  0  0
 52 55  2  0  0  0  0
 52 53  1  0  0  0  0
 54 52  2  0  0  0  0
 57 59  1  0  0  0  0
 57 52  1  0  0  0  0
 58 57  1  0  0  0  0
 60 57  1  0  0  0  0
 61 62  1  0  0  0  0
 63 61  2  0  0  0  0
 64 61  2  0  0  0  0
 65 70  1  0  0  0  0
 66 67  1  0  0  0  0
 66 61  1  0  0  0  0
 66 68  1  0  0  0  0
 69 66  1  0  0  0  0
 70 72  1  0  0  0  0
 70 71  1  0  0  0  0
 71 74  1  0  0  0  0
 71 76  1  0  0  0  0
 73 70  1  0  0  0  0
 75 71  1  0  0  0  0
 76 78  1  0  0  0  0
 76 77  1  0  0  0  0
 79 76  1  0  0  0  0
 80 79  1  0  0  0  0
M  RAD  4  14   2  23   2  53   2  62   2
M  END
$$$$
