26
1sa1fa1dma1am-1
S        1.22474900      -0.39100900       0.33984900
O        0.14306500       0.38080100       1.02241100
O        2.37922800      -0.70372900       1.17550300
O        0.62461400      -1.57647300      -0.33351200
O        1.71192400       0.59494700      -0.81763300
H       -0.98123500      -1.36605400      -0.32615700
H        2.71281100       0.49424300      -0.94181000
H       -2.37971000       3.57258200      -0.40293700
H       -0.37903500       1.78940200       0.62158900
C       -1.94297500       2.59004400      -0.18295200
O       -0.79499100       2.69124700       0.41530200
O       -2.52691200       1.55674000      -0.48918700
N        4.36196400       0.19512100      -0.84134300
H        4.75112700      -0.46327300      -1.50721300
H        4.32238800      -0.25449900       0.07229200
H        4.97932900       0.99743000      -0.78411300
N       -2.01201700      -1.15169300      -0.21695500
C       -2.41820500      -1.54266800       1.14896000
C       -2.78139200      -1.79606000      -1.29693700
H       -2.09376500      -0.11679900      -0.29828200
H       -2.27320200      -2.61695400       1.27269200
H       -1.78203500      -1.00040300       1.84841800
H       -3.46709600      -1.28433900       1.30541600
H       -2.64966300      -2.87758300      -1.23655200
H       -3.83798600      -1.54280400      -1.19530500
H       -2.40753300      -1.43495800      -2.25503200
26
1sa1fa1dma1am-2
S        1.20415400       0.37446300      -0.36154500
O        2.00430700      -0.44708900      -1.26617800
O        0.36205900      -0.43752900       0.58100500
O        2.19765800       1.20291100       0.56433800
O        0.35907300       1.40876100      -1.00687800
H        3.05122300       0.67140200       0.68222900
H       -1.14105000       1.27338600      -0.40241200
H       -2.46287100      -3.60866800      -0.13043100
H       -0.25387300      -1.81560800       0.27484000
C       -1.99072400      -2.62696700       0.00396600
O       -0.70417500      -2.72033600       0.15173000
O       -2.65955900      -1.59953000       0.00553900
N        4.38034600      -0.36096300       0.55848000
H        4.07272600      -0.81939000      -0.29789900
H        4.48810300      -1.06664100       1.27877000
H        5.28406100       0.06755600       0.39159500
N       -2.06760500       1.10503800       0.07796200
C       -3.16347100       1.69772500      -0.71069000
C       -1.96375700       1.60784600       1.46350900
H       -2.17919900       0.06995800       0.09944400
H       -3.00579200       2.77397600      -0.79633400
H       -3.16144400       1.24779000      -1.70330600
H       -4.11747900       1.49761400      -0.22011200
H       -1.79353200       2.68535300       1.44033600
H       -2.88707700       1.38497800       2.00135100
H       -1.11662900       1.10923400       1.93440900
26
1sa1fa1dma1am-3
S        0.97756200      -0.80077600      -0.29569100
O        1.13407700       0.43124200      -1.12545400
O        0.68729400      -0.45851200       1.10917500
O        0.00172700      -1.75224900      -0.87388200
O        2.36201900      -1.56509500      -0.36260400
H        3.05463800      -0.94168800       0.02840300
H       -1.12735600       3.90244800       0.32256600
H        0.56888300       1.75535300      -0.60188400
C       -0.91220000       2.86148400       0.04656800
O        0.32231200       2.70643000      -0.31954200
O       -1.78733500       2.00556300       0.09652600
N       -2.26500100      -0.71042800       0.12356300
C       -3.47522000      -0.85745500      -0.70688600
C       -2.40688800      -1.17703700       1.51974400
H       -1.45361600      -1.21834800      -0.32023100
H       -4.29774700      -0.30198200      -0.25354100
H       -3.26761900      -0.45985000      -1.70023700
H       -3.73466100      -1.91455200      -0.78162000
H       -3.18194100      -0.59292100       2.01894700
H       -2.67663800      -2.23436200       1.51658100
H       -1.44216000      -1.03955900       2.00908700
H       -1.97811700       0.29033500       0.12836900
N        3.84712600       0.37243900       0.76741900
H        4.76942400       0.27377200       1.17629700
H        3.18950300       0.62205100       1.50182900
H        3.86664200       1.13665200       0.09931300
