1sa_2mea_1w.log
 OpenBabel02281909503D
Gaussian appl/chem/G09RevD.01/g09/g09 #p opt freq wB97XD/6-31++G(d,p) iop(5/13=1
 32 28  0  0  0  0  0  0  0  0999 V2000
   -1.6677    1.0333    0.2260 S   0  0  0  0  0  0  0  0  0  0  0  0
   -1.6462    0.0642    1.3316 O   0  0  0  0  0  0  0  0  0  0  0  0
   -3.1112    1.7464    0.4033 O   0  0  0  0  0  0  0  0  0  0  0  0
   -3.1882    2.4418   -0.2641 H   0  0  0  0  0  0  0  0  0  0  0  0
   -0.1664   -0.9516    1.2357 H   0  0  0  0  0  0  0  0  0  0  0  0
   -0.6626    2.1082    0.3379 O   0  0  0  0  0  0  0  0  0  0  0  0
   -1.6691    0.4071   -1.1145 O   0  0  0  0  0  0  0  0  0  0  0  0
    0.6037   -1.5177    0.8345 N   0  0  0  0  0  0  0  0  0  0  0  0
    0.1543   -2.9085    0.5957 C   0  0  0  0  0  0  0  0  0  0  0  0
    0.8765   -1.0395   -0.0866 H   0  0  0  0  0  0  0  0  0  0  0  0
    1.4328   -1.4375    1.4440 H   0  0  0  0  0  0  0  0  0  0  0  0
    0.9449   -3.4240    0.0445 H   0  0  0  0  0  0  0  0  0  0  0  0
    0.0139   -3.4055    1.5598 H   0  0  0  0  0  0  0  0  0  0  0  0
   -1.1465   -2.9207   -0.2032 C   0  0  0  0  0  0  0  0  0  0  0  0
   -1.4328   -3.9656   -0.3654 H   0  0  0  0  0  0  0  0  0  0  0  0
   -1.9398   -2.4367    0.3799 H   0  0  0  0  0  0  0  0  0  0  0  0
   -0.9866   -2.2986   -1.4555 O   0  0  0  0  0  0  0  0  0  0  0  0
   -1.3402   -1.3925   -1.4051 H   0  0  0  0  0  0  0  0  0  0  0  0
    1.2986   -0.2580   -1.5559 N   0  0  0  0  0  0  0  0  0  0  0  0
    2.5173    0.5541   -1.5845 C   0  0  0  0  0  0  0  0  0  0  0  0
    1.3376   -1.0200   -2.2264 H   0  0  0  0  0  0  0  0  0  0  0  0
    0.4679    0.2878   -1.7870 H   0  0  0  0  0  0  0  0  0  0  0  0
    3.3303   -0.0300   -1.1385 H   0  0  0  0  0  0  0  0  0  0  0  0
    2.8229    0.8214   -2.6069 H   0  0  0  0  0  0  0  0  0  0  0  0
    2.3410    1.8500   -0.8043 C   0  0  0  0  0  0  0  0  0  0  0  0
    3.2799    2.4126   -0.8382 H   0  0  0  0  0  0  0  0  0  0  0  0
    1.5613    2.4640   -1.2712 H   0  0  0  0  0  0  0  0  0  0  0  0
    2.0055    1.6308    0.5566 O   0  0  0  0  0  0  0  0  0  0  0  0
    1.0458    1.7923    0.6574 H   0  0  0  0  0  0  0  0  0  0  0  0
    2.9535   -0.5001    1.9190 O   0  0  0  0  0  0  0  0  0  0  0  0
    3.3496   -0.2851    2.7659 H   0  0  0  0  0  0  0  0  0  0  0  0
    2.7111    0.3504    1.4871 H   0  0  0  0  0  0  0  0  0  0  0  0
  1  6  2  0  0  0  0
  1  3  1  0  0  0  0
  1  2  1  0  0  0  0
  4  3  1  0  0  0  0
  7  1  2  0  0  0  0
  8  5  1  0  0  0  0
  8 11  1  0  0  0  0
  9  8  1  0  0  0  0
  9 13  1  0  0  0  0
 10  8  1  0  0  0  0
 12  9  1  0  0  0  0
 14 16  1  0  0  0  0
 14  9  1  0  0  0  0
 15 14  1  0  0  0  0
 17 18  1  0  0  0  0
 17 14  1  0  0  0  0
 20 19  1  0  0  0  0
 20 23  1  0  0  0  0
 20 25  1  0  0  0  0
 21 19  1  0  0  0  0
 22 19  1  0  0  0  0
 24 20  1  0  0  0  0
 25 28  1  0  0  0  0
 26 25  1  0  0  0  0
 27 25  1  0  0  0  0
 28 29  1  0  0  0  0
 30 31  1  0  0  0  0
 32 30  1  0  0  0  0
M  RAD  1   2   2
M  END
$$$$
