2sa_1mea_2w.log
 OpenBabel02281909503D
Gaussian 09 #p opt freq wB97XD/6-31++G(d,p) iop(5/13=1) iop(1/11=1)
 31 26  0  0  0  0  0  0  0  0999 V2000
    2.1327   -1.1307    0.2792 S   0  0  0  0  0  0  0  0  0  0  0  0
    0.8313   -0.7648    0.8965 O   0  0  0  0  0  0  0  0  0  0  0  0
    2.3331   -2.6451    0.7957 O   0  0  0  0  0  0  0  0  0  0  0  0
    3.1101   -3.0228    0.3597 H   0  0  0  0  0  0  0  0  0  0  0  0
    0.1877    0.9930    0.5055 H   0  0  0  0  0  0  0  0  0  0  0  0
    2.0701   -1.1856   -1.1930 O   0  0  0  0  0  0  0  0  0  0  0  0
    3.2565   -0.3410    0.7941 O   0  0  0  0  0  0  0  0  0  0  0  0
    0.2417    2.0169    0.3733 N   0  0  0  0  0  0  0  0  0  0  0  0
   -0.2489    2.4136   -0.9718 C   0  0  0  0  0  0  0  0  0  0  0  0
   -0.3612    2.4341    1.1055 H   0  0  0  0  0  0  0  0  0  0  0  0
    1.2362    2.2888    0.5021 H   0  0  0  0  0  0  0  0  0  0  0  0
   -1.3293    2.2595   -0.9823 H   0  0  0  0  0  0  0  0  0  0  0  0
   -0.0406    3.4778   -1.1027 H   0  0  0  0  0  0  0  0  0  0  0  0
    0.4166    1.6092   -2.0768 C   0  0  0  0  0  0  0  0  0  0  0  0
    0.1360    2.0504   -3.0384 H   0  0  0  0  0  0  0  0  0  0  0  0
    1.5074    1.6603   -1.9829 H   0  0  0  0  0  0  0  0  0  0  0  0
   -0.0078    0.2578   -2.0510 O   0  0  0  0  0  0  0  0  0  0  0  0
    0.7463   -0.3399   -1.8496 H   0  0  0  0  0  0  0  0  0  0  0  0
   -2.5285   -0.8596    0.0627 S   0  0  0  0  0  0  0  0  0  0  0  0
   -2.3447   -0.7718   -1.4989 O   0  0  0  0  0  0  0  0  0  0  0  0
   -1.4988   -1.9594    0.5210 O   0  0  0  0  0  0  0  0  0  0  0  0
   -0.5921   -1.5674    0.6720 H   0  0  0  0  0  0  0  0  0  0  0  0
   -1.4636   -0.3547   -1.7380 H   0  0  0  0  0  0  0  0  0  0  0  0
   -2.0916    0.4181    0.6349 O   0  0  0  0  0  0  0  0  0  0  0  0
   -3.8524   -1.3443    0.3179 O   0  0  0  0  0  0  0  0  0  0  0  0
    2.9946    2.3401    0.3416 O   0  0  0  0  0  0  0  0  0  0  0  0
    3.6460    2.9061    0.7613 H   0  0  0  0  0  0  0  0  0  0  0  0
    3.2667    1.4129    0.5077 H   0  0  0  0  0  0  0  0  0  0  0  0
   -1.9290    2.8003    1.9331 O   0  0  0  0  0  0  0  0  0  0  0  0
   -2.3614    1.9600    1.7066 H   0  0  0  0  0  0  0  0  0  0  0  0
   -2.1455    2.9966    2.8472 H   0  0  0  0  0  0  0  0  0  0  0  0
  1  7  2  0  0  0  0
  1  3  1  0  0  0  0
  1  2  1  0  0  0  0
  4  3  1  0  0  0  0
  6  1  2  0  0  0  0
  8 11  1  0  0  0  0
  8  5  1  0  0  0  0
  8 10  1  0  0  0  0
  9  8  1  0  0  0  0
 12  9  1  0  0  0  0
 13  9  1  0  0  0  0
 14 17  1  0  0  0  0
 14 16  1  0  0  0  0
 14  9  1  0  0  0  0
 15 14  1  0  0  0  0
 17 18  1  0  0  0  0
 19 25  2  0  0  0  0
 19 21  1  0  0  0  0
 19 24  2  0  0  0  0
 20 19  1  0  0  0  0
 21 22  1  0  0  0  0
 23 20  1  0  0  0  0
 26 28  1  0  0  0  0
 26 27  1  0  0  0  0
 29 31  1  0  0  0  0
 30 29  1  0  0  0  0
M  RAD  1   2   2
M  END
$$$$
