1b_4w.log
 OpenBabel02281910063D
Gaussian kemi/andersx/programs/g09/g09 # opt freq 6-31++g(d,p) wb97xd
 18 13  0  0  0  0  0  0  0  0999 V2000
   -0.3687   -1.1433   -0.0520 S   0  0  0  0  0  0  0  0  0  0  0  0
    0.2210   -0.3296   -1.1594 O   0  0  0  0  0  0  0  0  0  0  0  0
   -0.4234   -0.1263    1.2424 O   0  0  0  0  0  0  0  0  0  0  0  0
   -1.7695   -1.4960   -0.3120 O   0  0  0  0  0  0  0  0  0  0  0  0
    0.5296   -2.2048    0.3967 O   0  0  0  0  0  0  0  0  0  0  0  0
   -0.0932    1.4883   -1.2926 H   0  0  0  0  0  0  0  0  0  0  0  0
   -1.2092    0.4617    1.1124 H   0  0  0  0  0  0  0  0  0  0  0  0
    2.8056   -1.0370    0.1181 H   0  0  0  0  0  0  0  0  0  0  0  0
    2.9027   -0.2646   -0.4508 O   0  0  0  0  0  0  0  0  0  0  0  0
    2.0495   -0.2671   -0.9293 H   0  0  0  0  0  0  0  0  0  0  0  0
   -0.2620    2.4070   -1.0085 O   0  0  0  0  0  0  0  0  0  0  0  0
    0.4142    2.5233   -0.3160 H   0  0  0  0  0  0  0  0  0  0  0  0
    2.3166    1.3097    0.5599 H   0  0  0  0  0  0  0  0  0  0  0  0
    1.6756    1.8581    1.0464 O   0  0  0  0  0  0  0  0  0  0  0  0
    1.0223    1.1995    1.3345 H   0  0  0  0  0  0  0  0  0  0  0  0
   -1.8386    1.9287   -0.2062 H   0  0  0  0  0  0  0  0  0  0  0  0
   -2.4795    1.4107    0.3285 O   0  0  0  0  0  0  0  0  0  0  0  0
   -2.7246    0.6493   -0.2148 H   0  0  0  0  0  0  0  0  0  0  0  0
  1  5  1  0  0  0  0
  1  3  1  0  0  0  0
  2  1  2  0  0  0  0
  4  1  2  0  0  0  0
  6 11  1  0  0  0  0
  7  3  1  0  0  0  0
  9  8  1  0  0  0  0
 10  9  1  0  0  0  0
 11 12  1  0  0  0  0
 13 14  1  0  0  0  0
 14 15  1  0  0  0  0
 16 17  1  0  0  0  0
 18 17  1  0  0  0  0
M  RAD  1   5   2
M  END
$$$$
