1sa_1b_5w.log
 OpenBabel02281910063D
Gaussian kemi/andersx/programs/g09/g09 # opt freq 6-31++g(d,p) wb97xd
 28 21  0  0  0  0  0  0  0  0999 V2000
    0.3226    2.1511   -1.3706 O   0  0  0  0  0  0  0  0  0  0  0  0
   -2.3123    1.2578   -0.6884 O   0  0  0  0  0  0  0  0  0  0  0  0
   -3.0753    0.3557    0.1646 S   0  0  0  0  0  0  0  0  0  0  0  0
   -3.1296   -1.0700   -0.5147 O   0  0  0  0  0  0  0  0  0  0  0  0
   -2.2619    0.1063    1.4951 O   0  0  0  0  0  0  0  0  0  0  0  0
   -4.4234    0.6983    0.5350 O   0  0  0  0  0  0  0  0  0  0  0  0
    0.1965   -0.3903    0.8008 O   0  0  0  0  0  0  0  0  0  0  0  0
    0.5039   -1.2765   -0.3692 S   0  0  0  0  0  0  0  0  0  0  0  0
   -0.6877   -2.0171   -0.8153 O   0  0  0  0  0  0  0  0  0  0  0  0
    1.1736   -0.5160   -1.4482 O   0  0  0  0  0  0  0  0  0  0  0  0
    1.5075   -2.3783    0.1377 O   0  0  0  0  0  0  0  0  0  0  0  0
    3.6357   -1.1903    0.9786 O   0  0  0  0  0  0  0  0  0  0  0  0
    2.2801    0.8557    2.2272 O   0  0  0  0  0  0  0  0  0  0  0  0
    3.8040    0.5370   -1.1749 O   0  0  0  0  0  0  0  0  0  0  0  0
    2.4476    2.7297    0.0967 O   0  0  0  0  0  0  0  0  0  0  0  0
    0.5734    1.2340   -1.5881 H   0  0  0  0  0  0  0  0  0  0  0  0
    2.3708   -1.9437    0.4783 H   0  0  0  0  0  0  0  0  0  0  0  0
   -1.2968   -0.0817    1.2754 H   0  0  0  0  0  0  0  0  0  0  0  0
   -2.2068   -1.4199   -0.6953 H   0  0  0  0  0  0  0  0  0  0  0  0
   -0.5743    2.0546   -1.0140 H   0  0  0  0  0  0  0  0  0  0  0  0
    3.2987   -0.5095    1.6016 H   0  0  0  0  0  0  0  0  0  0  0  0
    3.9379   -0.6554    0.2145 H   0  0  0  0  0  0  0  0  0  0  0  0
    2.9678    0.1430   -1.4764 H   0  0  0  0  0  0  0  0  0  0  0  0
    3.5261    1.3763   -0.7703 H   0  0  0  0  0  0  0  0  0  0  0  0
    2.4244    1.6240    1.6494 H   0  0  0  0  0  0  0  0  0  0  0  0
    1.4613    0.4639    1.8764 H   0  0  0  0  0  0  0  0  0  0  0  0
    1.5891    2.5912   -0.3885 H   0  0  0  0  0  0  0  0  0  0  0  0
    2.6490    3.6655    0.0378 H   0  0  0  0  0  0  0  0  0  0  0  0
  1 20  1  0  0  0  0
  2  3  2  0  0  0  0
  3  6  2  0  0  0  0
  3  5  1  0  0  0  0
  4  3  1  0  0  0  0
  8 11  1  0  0  0  0
  8  7  1  0  0  0  0
  9  8  2  0  0  0  0
 10  8  2  0  0  0  0
 11 17  1  0  0  0  0
 12 21  1  0  0  0  0
 14 24  1  0  0  0  0
 16  1  1  0  0  0  0
 18  5  1  0  0  0  0
 19  4  1  0  0  0  0
 22 12  1  0  0  0  0
 23 14  1  0  0  0  0
 25 13  1  0  0  0  0
 26 13  1  0  0  0  0
 27 15  1  0  0  0  0
 28 15  1  0  0  0  0
M  RAD  1   7   2
M  END
$$$$
