1sa_1b_1w.log
 OpenBabel02281910063D
Gaussian kemi/andersx/programs/g09/g09 # opt freq 6-31++g(d,p) wb97xd
 16 13  0  0  0  0  0  0  0  0999 V2000
    2.2234    0.2408    0.0746 S   0  0  0  0  0  0  0  0  0  0  0  0
    1.3792    1.5563   -0.1257 O   0  0  0  0  0  0  0  0  0  0  0  0
    1.9266   -0.6078   -1.2196 O   0  0  0  0  0  0  0  0  0  0  0  0
    3.6159    0.6038    0.0533 O   0  0  0  0  0  0  0  0  0  0  0  0
    1.6891   -0.4789    1.2319 O   0  0  0  0  0  0  0  0  0  0  0  0
    0.3894    1.3392   -0.0736 H   0  0  0  0  0  0  0  0  0  0  0  0
    0.9613   -0.9218   -1.2079 H   0  0  0  0  0  0  0  0  0  0  0  0
   -1.4369   -0.6083   -0.0843 S   0  0  0  0  0  0  0  0  0  0  0  0
   -1.1145    0.8514   -0.0201 O   0  0  0  0  0  0  0  0  0  0  0  0
   -0.5661   -1.2927   -1.0750 O   0  0  0  0  0  0  0  0  0  0  0  0
   -2.8564   -0.8912   -0.2075 O   0  0  0  0  0  0  0  0  0  0  0  0
   -1.0205   -1.2057    1.3554 O   0  0  0  0  0  0  0  0  0  0  0  0
   -0.0610   -1.0374    1.4725 H   0  0  0  0  0  0  0  0  0  0  0  0
   -3.9168    1.9084    0.0068 O   0  0  0  0  0  0  0  0  0  0  0  0
   -4.0106    0.9502   -0.0733 H   0  0  0  0  0  0  0  0  0  0  0  0
   -2.9558    1.9995    0.0411 H   0  0  0  0  0  0  0  0  0  0  0  0
  1  5  2  0  0  0  0
  2  6  1  0  0  0  0
  2  1  1  0  0  0  0
  3  7  1  0  0  0  0
  3  1  1  0  0  0  0
  4  1  2  0  0  0  0
  8  9  1  0  0  0  0
  8 12  1  0  0  0  0
 10  8  2  0  0  0  0
 11  8  2  0  0  0  0
 12 13  1  0  0  0  0
 14 16  1  0  0  0  0
 15 14  1  0  0  0  0
M  RAD  1   9   2
M  END
$$$$
