3sa_1b_5w.log
 OpenBabel02281910063D
Gaussian kemi/andersx/programs/g09/g09 # opt freq 6-31++g(d,p) wb97xd
 42 30  0  0  0  0  0  0  0  0999 V2000
   -4.7634    0.0296   -0.2133 S   0  0  0  0  0  0  0  0  0  0  0  0
   -3.9516    0.8105   -1.1794 O   0  0  0  0  0  0  0  0  0  0  0  0
   -6.2910    0.4754   -0.5229 O   0  0  0  0  0  0  0  0  0  0  0  0
   -4.6870   -1.4180   -0.4421 O   0  0  0  0  0  0  0  0  0  0  0  0
   -4.5909    0.4466    1.1864 O   0  0  0  0  0  0  0  0  0  0  0  0
   -6.4548    0.3231   -1.4634 H   0  0  0  0  0  0  0  0  0  0  0  0
    1.0319    3.1055    0.1173 S   0  0  0  0  0  0  0  0  0  0  0  0
    1.4491    2.9321   -1.3041 O   0  0  0  0  0  0  0  0  0  0  0  0
    2.2183    2.5138    1.0199 O   0  0  0  0  0  0  0  0  0  0  0  0
    0.8622    4.4699    0.5493 O   0  0  0  0  0  0  0  0  0  0  0  0
   -0.1517    2.2186    0.3996 O   0  0  0  0  0  0  0  0  0  0  0  0
    2.6359    1.7219    0.6198 H   0  0  0  0  0  0  0  0  0  0  0  0
    0.6414   -1.9537   -0.7044 S   0  0  0  0  0  0  0  0  0  0  0  0
    0.9680   -1.2791    0.6159 O   0  0  0  0  0  0  0  0  0  0  0  0
   -0.4700   -2.8977   -0.5643 O   0  0  0  0  0  0  0  0  0  0  0  0
    1.8816   -2.5732   -1.2460 O   0  0  0  0  0  0  0  0  0  0  0  0
    0.2329   -0.8362   -1.6862 O   0  0  0  0  0  0  0  0  0  0  0  0
    2.0807    0.7238   -2.2861 O   0  0  0  0  0  0  0  0  0  0  0  0
    1.3183    0.0315   -2.0955 H   0  0  0  0  0  0  0  0  0  0  0  0
    1.7704    1.6493   -1.9406 H   0  0  0  0  0  0  0  0  0  0  0  0
    2.8252    0.4829   -1.6782 H   0  0  0  0  0  0  0  0  0  0  0  0
   -0.5402    0.2381    2.2532 O   0  0  0  0  0  0  0  0  0  0  0  0
   -1.8444   -0.3301    2.4573 H   0  0  0  0  0  0  0  0  0  0  0  0
   -0.4531    1.1091    1.8227 H   0  0  0  0  0  0  0  0  0  0  0  0
    0.0023   -0.3578    1.6920 H   0  0  0  0  0  0  0  0  0  0  0  0
   -1.4354    1.0174   -1.3969 O   0  0  0  0  0  0  0  0  0  0  0  0
   -0.9810    1.5877   -0.6811 H   0  0  0  0  0  0  0  0  0  0  0  0
   -0.9026    0.1544   -1.4884 H   0  0  0  0  0  0  0  0  0  0  0  0
   -2.4337    0.8981   -1.2693 H   0  0  0  0  0  0  0  0  0  0  0  0
   -2.7090   -2.7805    0.9797 O   0  0  0  0  0  0  0  0  0  0  0  0
   -3.4041   -2.5231    0.3464 H   0  0  0  0  0  0  0  0  0  0  0  0
   -2.6948   -1.7041    1.9576 H   0  0  0  0  0  0  0  0  0  0  0  0
   -1.8797   -2.8739    0.4623 H   0  0  0  0  0  0  0  0  0  0  0  0
    4.2697   -0.8033    0.4248 S   0  0  0  0  0  0  0  0  0  0  0  0
    4.2658   -1.9559   -0.6305 O   0  0  0  0  0  0  0  0  0  0  0  0
    5.5981   -0.6498    0.9426 O   0  0  0  0  0  0  0  0  0  0  0  0
    3.3205   -1.2905    1.5648 O   0  0  0  0  0  0  0  0  0  0  0  0
    3.6339    0.3798   -0.2057 O   0  0  0  0  0  0  0  0  0  0  0  0
    3.3085   -2.2189   -0.8917 H   0  0  0  0  0  0  0  0  0  0  0  0
    2.3526   -1.3199    1.2265 H   0  0  0  0  0  0  0  0  0  0  0  0
   -2.7539   -0.8431    2.5512 O   0  0  0  0  0  0  0  0  0  0  0  0
   -3.4799   -0.2952    2.1437 H   0  0  0  0  0  0  0  0  0  0  0  0
  1  5  1  0  0  0  0
  2  1  2  0  0  0  0
  3  1  1  0  0  0  0
  4  1  2  0  0  0  0
  6  3  1  0  0  0  0
  7 11  2  0  0  0  0
  7 10  1  0  0  0  0
  7  9  1  0  0  0  0
  8  7  2  0  0  0  0
 12  9  1  0  0  0  0
 13 15  1  0  0  0  0
 13 14  1  0  0  0  0
 16 13  2  0  0  0  0
 17 13  2  0  0  0  0
 18 20  1  0  0  0  0
 18 21  1  0  0  0  0
 24 22  1  0  0  0  0
 25 22  1  0  0  0  0
 26 29  1  0  0  0  0
 28 26  1  0  0  0  0
 31 30  1  0  0  0  0
 32 41  1  0  0  0  0
 33 30  1  0  0  0  0
 34 36  2  0  0  0  0
 34 37  1  0  0  0  0
 35 34  1  0  0  0  0
 38 34  2  0  0  0  0
 39 35  1  0  0  0  0
 40 37  1  0  0  0  0
 42 41  1  0  0  0  0
M  RAD  7   5   2  10   2  14   2  15   2  19   2  23   2  27   2
M  END
$$$$
