3sa_1b_3w.log
 OpenBabel02281910063D
Gaussian kemi/andersx/programs/g09/g09 # opt freq 6-31++g(d,p) wb97xd
 36 28  0  0  0  0  0  0  0  0999 V2000
    4.7874   -1.2574   -0.4511 S   0  0  0  0  0  0  0  0  0  0  0  0
    3.8906   -1.8363    0.5411 O   0  0  0  0  0  0  0  0  0  0  0  0
    3.9132   -0.7553   -1.6774 O   0  0  0  0  0  0  0  0  0  0  0  0
    5.4151    0.0676    0.1276 O   0  0  0  0  0  0  0  0  0  0  0  0
    5.8625   -2.0464   -0.9815 O   0  0  0  0  0  0  0  0  0  0  0  0
    4.7081    0.7394    0.3533 H   0  0  0  0  0  0  0  0  0  0  0  0
    3.1000   -0.2962   -1.3487 H   0  0  0  0  0  0  0  0  0  0  0  0
    2.0753    1.7180    0.5441 S   0  0  0  0  0  0  0  0  0  0  0  0
    1.3270    2.8807    0.0396 O   0  0  0  0  0  0  0  0  0  0  0  0
    3.5349    1.8688    0.4969 O   0  0  0  0  0  0  0  0  0  0  0  0
    1.5525    1.2014    1.8172 O   0  0  0  0  0  0  0  0  0  0  0  0
    1.8151    0.5274   -0.5568 O   0  0  0  0  0  0  0  0  0  0  0  0
    1.7600   -0.4749    2.1878 H   0  0  0  0  0  0  0  0  0  0  0  0
   -1.7880    1.3377   -0.5464 S   0  0  0  0  0  0  0  0  0  0  0  0
   -1.2802    2.8018   -0.2897 O   0  0  0  0  0  0  0  0  0  0  0  0
   -2.0060    0.6897    0.7889 O   0  0  0  0  0  0  0  0  0  0  0  0
   -3.0364    1.4900   -1.2950 O   0  0  0  0  0  0  0  0  0  0  0  0
   -0.7232    0.6162   -1.2937 O   0  0  0  0  0  0  0  0  0  0  0  0
   -5.0249   -0.9654    0.0691 S   0  0  0  0  0  0  0  0  0  0  0  0
   -4.3874   -0.3476    1.3790 O   0  0  0  0  0  0  0  0  0  0  0  0
   -5.3542    0.3003   -0.8182 O   0  0  0  0  0  0  0  0  0  0  0  0
   -4.0119   -1.7596   -0.6145 O   0  0  0  0  0  0  0  0  0  0  0  0
   -6.2738   -1.5668    0.4416 O   0  0  0  0  0  0  0  0  0  0  0  0
    0.8687    0.5496   -0.8627 H   0  0  0  0  0  0  0  0  0  0  0  0
   -0.2939    2.8323   -0.1036 H   0  0  0  0  0  0  0  0  0  0  0  0
   -4.5087    0.7615   -1.0749 H   0  0  0  0  0  0  0  0  0  0  0  0
   -3.4969    0.0597    1.1874 H   0  0  0  0  0  0  0  0  0  0  0  0
    1.6451   -1.4495    2.1212 O   0  0  0  0  0  0  0  0  0  0  0  0
    0.3746   -1.5553    1.6106 H   0  0  0  0  0  0  0  0  0  0  0  0
    2.3780   -1.7410    1.5486 H   0  0  0  0  0  0  0  0  0  0  0  0
   -1.2876   -2.1561   -1.0794 O   0  0  0  0  0  0  0  0  0  0  0  0
   -1.0830   -1.3052   -1.5035 H   0  0  0  0  0  0  0  0  0  0  0  0
   -2.2600   -2.1810   -1.0340 H   0  0  0  0  0  0  0  0  0  0  0  0
   -0.6556   -1.5477    1.2978 O   0  0  0  0  0  0  0  0  0  0  0  0
   -0.8311   -1.9122    0.3567 H   0  0  0  0  0  0  0  0  0  0  0  0
   -1.0313   -0.6311    1.2767 H   0  0  0  0  0  0  0  0  0  0  0  0
  1  4  1  0  0  0  0
  1  2  2  0  0  0  0
  3  7  1  0  0  0  0
  3  1  1  0  0  0  0
  4  6  1  0  0  0  0
  5  1  2  0  0  0  0
  8 11  1  0  0  0  0
  9  8  2  0  0  0  0
 10  8  2  0  0  0  0
 12  8  1  0  0  0  0
 14 15  1  0  0  0  0
 14 16  1  0  0  0  0
 15 25  1  0  0  0  0
 17 14  2  0  0  0  0
 18 14  2  0  0  0  0
 19 23  2  0  0  0  0
 19 20  1  0  0  0  0
 21 19  1  0  0  0  0
 22 19  2  0  0  0  0
 24 12  1  0  0  0  0
 26 21  1  0  0  0  0
 27 20  1  0  0  0  0
 28 13  1  0  0  0  0
 30 28  1  0  0  0  0
 31 33  1  0  0  0  0
 32 31  1  0  0  0  0
 35 34  1  0  0  0  0
 36 34  1  0  0  0  0
M  RAD  3  11   2  16   2  29   2
M  END
$$$$
