34
1msa1eda1tma-01
S        1.84839800      -0.96507800       0.04786000
O        0.68153700      -1.50877000       0.78451700
O        2.68064000      -0.03954100       0.83424300
O        1.41631900      -0.37088000      -1.26655400
H        0.15089500       0.59850200      -0.97108100
C        2.87432900      -2.35877200      -0.39581800
H        3.20220000      -2.83983400       0.52608700
H        2.28116400      -3.04505000      -1.00037500
H        3.73002500      -1.98703600      -0.95981200
H       -1.05276900       2.29988500       1.15105100
H        0.16143400       1.00701000       1.33704200
H        1.25167800       3.25863400       1.35846200
H        1.78388000       2.26380900       0.00700400
H       -0.00892700       4.57323700      -0.13992500
H        1.23411300       4.16558300      -1.11911200
H       -1.48659300       0.60888700      -0.46023900
H       -0.78831600       1.98376100      -1.25354900
C       -0.18691500       1.81374700       0.68941000
C        0.92833200       2.81256500       0.41012400
N       -0.62793800       1.21729400      -0.59491900
N        0.46383900       3.79087700      -0.57906600
N       -2.68871700      -0.60413200      -0.04661000
C       -2.50018100      -0.83617600       1.38688900
H       -1.44963100      -1.07233600       1.57540100
H       -2.77495800       0.06619200       1.94289500
H       -3.12591200      -1.66951800       1.74754300
C       -4.07062200      -0.25472700      -0.34965000
H       -4.35465500       0.64830300       0.19938000
H       -4.17917600      -0.05865900      -1.42045000
H       -4.77057100      -1.06154400      -0.07343600
C       -2.25036800      -1.77159800      -0.81487200
H       -2.34996800      -1.56493600      -1.88476400
H       -1.20129400      -1.97531400      -0.58444100
H       -2.85270500      -2.66331200      -0.57342100
34
1msa1eda1tma-02
S       -1.74963100      -1.03232100       0.00292300
O       -1.13939300      -0.65255200      -1.31676700
O       -2.80930500      -0.09129100       0.42095700
O       -0.69367900      -1.24037900       1.02269900
H        0.17420000       1.11258600       0.71032400
C       -2.53997800      -2.60938200      -0.26915100
H       -1.78214600      -3.32419400      -0.59012200
H       -2.99295100      -2.92324700       0.67157700
H       -3.30134800      -2.48119900      -1.03880900
H       -1.83269700       2.25852600      -1.06687100
H       -1.41310400       3.91934200      -0.62338900
H        0.48716400       2.65233200      -1.76681600
H        0.91532200       3.25453300      -0.14330700
H       -0.01677300       0.49808000      -0.80639100
H        1.54167700       0.86954100      -0.23697000
H       -1.83910800       3.32047900       1.52630500
H       -2.14832500       1.75588900       1.05996200
C       -1.21211500       2.86686800      -0.39904000
C        0.26441200       2.57512200      -0.70008900
N       -1.49345500       2.53513900       0.99325600
N        0.54096500       1.19726000      -0.24845300
N        2.86892600      -0.32870100       0.04141000
C        4.25242000       0.04723700      -0.21793900
H        4.37091700       0.32864300      -1.26823700
H        4.52702800       0.90430900       0.40411000
H        4.95292800      -0.77701900       0.00083200
C        2.66480000      -0.67166600       1.45006800
H        2.92538800       0.18577400       2.07865400
H        1.61426500      -0.93058100       1.61272200
H        3.29010200      -1.52758100       1.75456800
C        2.44563700      -1.43655600      -0.81670600
H        1.39050000      -1.65670400      -0.63255100
H        2.56665000      -1.15666500      -1.86725400
H        3.03729700      -2.34756500      -0.62656300
34
1msa1eda1tma-03
S        1.56736800      -1.22042100       0.00487400
O        0.58729000      -2.25314200      -0.37410600
O        1.23097200      -0.55768500       1.30907200
O        1.79346800      -0.19918100      -1.05565700
H        0.01999700       1.07323800      -0.78449000
C        3.13104600      -2.03954200       0.26731600
H        2.99710400      -2.78273100       1.05365900
H        3.41925700      -2.51818600      -0.66887400
H        3.86746400      -1.29248200       0.56320800
H        1.65883800       2.59966200       1.25359000
H        1.14572800       4.18173100       0.65005300
H       -0.77943900       2.79742400       1.47693500
H       -0.93272400       3.23706000      -0.24518200
H        0.13698100       0.64008600       0.77844100
H       -1.40502400       0.80618100       0.08474900
H        2.41636900       3.49341000      -1.10383800
H        2.03196200       1.89937400      -0.95829200
C        1.11443300       3.10780900       0.44336500
C       -0.34770300       2.66790800       0.48110500
N        1.66921700       2.84971900      -0.87904200
N       -0.43173000       1.23652100       0.12456600
N       -2.70857000      -0.34301800      -0.05134200
C       -2.47489200      -1.30003300       1.03379100
H       -1.46484300      -1.70956700       0.94781400
H       -2.57479500      -0.79302300       1.99835600
H       -3.19841000      -2.13085300       0.99954100
C       -4.04543300       0.23314100       0.02632700
H       -4.18014700       0.72915700       0.99212400
H       -4.17742000       0.97460500      -0.76741400
H       -4.83072200      -0.53400100      -0.08119600
C       -2.47497900      -0.97743000      -1.35163900
H       -2.56810800      -0.23022900      -2.14618600
H       -1.46823900      -1.40528700      -1.37223900
H       -3.20281800      -1.78244200      -1.54407700
