60
3sa1ma2dma1eda-26
S        2.26386100      -1.73404900       0.63418400
O        2.82001800      -1.45962700      -0.71757300
O        2.98996000      -2.69876600       1.43477800
O        2.34458700      -0.34908100       1.43655200
O        0.78786100      -2.01130500       0.51377900
H       -1.94019100      -2.41363400      -0.56341600
H        1.70492200       0.33163400       1.02297500
S        1.25689500       2.31048900      -0.52768600
O        0.63667200       1.28424800       0.42350300
O        1.52943300       1.60764000      -1.83024500
O        0.28011800       3.42212700      -0.69972500
O        2.55351700       2.78627600       0.04408400
H        3.62105300       1.70172600      -0.44099500
S       -3.29099300      -0.67005700      -0.17139900
O       -2.94815200       0.26815500       0.95686300
O       -2.73784400      -0.16222600      -1.45465100
O       -2.41691200      -1.95462400       0.22047400
O       -4.69022100      -1.04451400      -0.21153100
N        4.25383300       0.91104500      -0.77734500
H        4.59995800       1.17049000      -1.69807100
H        3.65640900       0.06300300      -0.88351400
C        5.33809900       0.64031300       0.19032700
H        5.94682600       1.53580000       0.31572100
H        4.87243800       0.37184100       1.13834400
H        5.95029300      -0.18995100      -0.16194600
C       -3.18335200       3.09855000      -0.91560600
N       -2.16110900       2.77023200       0.09829500
C       -2.27858600       3.53869200       1.35199000
H       -2.25062600       1.76325900       0.33313500
H       -3.06336200       4.13906300      -1.22104400
H       -3.04665400       2.43246300      -1.76695300
H       -4.17626500       2.93774500      -0.49176100
H       -2.20827700       4.60409900       1.12852200
H       -3.23289600       3.31106900       1.83011100
H       -1.45210900       3.25509200       2.00399400
H       -1.19174100       2.94887300      -0.29056200
C       -1.35150400      -1.99278000       3.18810500
N       -0.86757600      -0.82329700       2.42305000
C       -0.22492600       0.21888500       3.25330000
H       -0.20741700      -1.17541900       1.69857000
H       -2.07121400      -1.65785200       3.93664300
H       -1.83252500      -2.67605600       2.49016300
H       -0.50126300      -2.47647400       3.67109600
H       -0.94138900       0.56026800       4.00300400
H        0.65793400      -0.20087700       3.73639700
H        0.07383500       1.03840900       2.59890700
H       -1.66268300      -0.40516800       1.89217900
C       -0.77632100      -2.68427300      -2.90232700
N       -1.00986300      -3.27144000      -1.57423600
C        0.27956800      -1.58956600      -2.84907200
N       -0.01521000      -0.58491000      -1.80775700
H       -0.13989100      -3.40002200      -1.05597800
H       -1.45950800      -4.17752000      -1.65930100
H       -0.43988600      -3.43013900      -3.63287600
H       -1.72566300      -2.26957700      -3.25689600
H        0.32885500      -1.08303600      -3.81531200
H        1.26817900      -1.99606000      -2.61857100
H       -1.01198500      -0.29949700      -1.79620900
H        0.59828500       0.27070200      -1.89742700
H        0.18967500      -0.98315200      -0.87534000
60
3sa1ma2dma1eda-32
S        2.87177800       1.30877400       0.13731200
O        3.96934800       0.42584600       0.58037700
O        3.30424500       2.60603600      -0.41204100
O        2.18490100       0.57193400      -1.11170000
O        1.80659000       1.48131200       1.15496200
H       -1.08613400       0.12382900      -0.83521500
H        1.39164600      -0.00435700      -0.83985900
S        0.28923700      -2.33527300      -0.36546400
O        0.12592000      -0.80780500      -0.52050100
O        0.69538400      -2.56975300       1.05766700
O       -1.00692900      -2.98446400      -0.69329300
O        1.36518500      -2.77863600      -1.29557700
H        2.81552500      -2.32842500      -0.77903700
S       -2.36280600       1.46512200       0.32403700
O       -1.82360100       0.78529400      -1.02971700
O       -3.62365900       2.08229000      -0.05439800
O       -2.51381900       0.32142800       1.28986500
O       -1.30408300       2.38272900       0.79541100
H        0.14919200       2.91495400      -0.05063300
C        0.20809900      -0.10909100       3.81460500
N        0.04651900      -0.23566300       2.35650900
H        0.67988100       0.41918700       1.85438800
H        0.28280400      -1.18810000       1.99540400
H       -0.05713000       0.90376900       4.11771200
H       -0.44085900      -0.82541600       4.31924500
H        1.24740100      -0.30602500       4.07808400
H       -0.91939300      -0.02057900       2.05007900
N        3.78335000      -2.14437800      -0.38710400
H        3.77908400      -1.19567600       0.04485300
C        4.03847600      -3.16068200       0.65352700
H        3.20095500      -3.14017400       1.35196000
H        4.08922100      -4.14476200       0.18479600
H        4.97737200      -2.93626400       1.16290500
C        4.75643400      -2.12737400      -1.49568700
H        4.72607300      -3.08615700      -2.01571900
H        4.47878200      -1.32531300      -2.17955500
H        5.75695700      -1.94318500      -1.10068400
N        0.66441800       3.55602800      -0.68845900
H        1.68177800       3.37188500      -0.56323800
C        0.28328100       3.22086300      -2.07978400
H        0.62852800       2.20909500      -2.29002600
H       -0.80223000       3.26994500      -2.17047900
H        0.76120400       3.92742900      -2.76009600
C        0.33109200       4.93667400      -0.28301100
H       -0.74882600       5.07080400      -0.35247800
H        0.65040400       5.08135100       0.74871600
H        0.84786900       5.64084600      -0.93680900
C       -4.08618300      -1.51174900      -1.24526500
N       -3.36177800      -1.94156800      -0.02474000
C       -5.41346000      -0.88639300      -0.83415900
N       -6.14886200      -1.82870000       0.01357500
H       -2.45518000      -2.43422400      -0.25367400
H       -3.99252600      -2.52642200       0.52823700
H       -3.45629100      -0.79544700      -1.77376000
H       -4.23167700      -2.39576700      -1.87230100
H       -5.95668400      -0.58359700      -1.73832800
H       -5.20874900       0.02500400      -0.26347800
H       -6.69219900      -2.48401100      -0.53778800
H       -6.78798900      -1.34919200       0.63550900
H       -3.10795800      -1.10617700       0.54883600
60
3sa1ma2dma1eda-20
S       -0.18453900       1.72797400      -0.79253400
O       -0.52722500       0.28275600      -1.10768700
O       -1.19148500       2.61930600      -1.42576300
O       -0.17679100       1.91143600       0.69483400
O        1.20217400       1.99115300      -1.34153500
H        2.02640700       0.54673100      -1.60908100
H       -2.05507800      -0.22643300      -1.32825600
S       -3.14123500      -1.41441300       0.09200800
O       -2.95769200      -0.65816300      -1.32270600
O       -3.03338100      -0.33378900       1.11938200
O       -4.42697900      -2.07299400       0.00998100
O       -1.96055100      -2.32410500       0.21659900
S        3.22586000      -0.87292300      -0.42929300
O        4.60780300      -0.42538400      -0.53710500
O        2.52118300      -0.21256700       0.73118400
O        2.42923200      -0.35750700      -1.73574200
O        2.98560300      -2.32294800      -0.44780900
C        0.39735500      -2.78932500      -2.84839400
N        0.30047800      -2.31277800      -1.45438500
H       -0.53994300      -2.64656800      -0.95737100
H        1.14280000      -2.56532700      -0.91002400
H       -0.48993700      -2.46966000      -3.39447200
H        1.29074700      -2.35381400      -3.29426000
H        0.46695800      -3.87680700      -2.85656800
H        0.23671300      -1.27637000      -1.43217800
C       -4.70299100       2.11541400      -0.62408700
N       -3.40816900       2.16232500       0.08502400
C       -3.31889300       3.16901500       1.16082300
H       -3.22549400       1.21435400       0.49526800
H       -4.88555500       3.07579500      -1.10896000
H       -4.65384500       1.31822600      -1.36599000
H       -5.49694500       1.89755200       0.09209300
H       -3.51670300       4.15895600       0.74626000
H       -4.04896900       2.93517000       1.93764300
H       -2.30557500       3.13298100       1.56241000
H       -2.62518400       2.34702700      -0.59224800
C        4.30145800       2.78817000       0.16185600
N        2.93635700       2.49508400       0.65088800
C        2.46256800       3.37143400       1.73983900
H        2.25241700       2.51671300      -0.14746000
H        4.99832400       2.75072600       1.00069100
H        4.58211900       2.02543300      -0.56527600
H        4.31320900       3.78081400      -0.29075800
H        3.09835100       3.23607700       2.61676700
H        2.51051100       4.40988800       1.40740700
H        1.42866300       3.10207300       1.95634500
H        2.87654700       1.49082000       0.92501300
C        0.09785500      -1.50016600       2.85105600
N       -0.05356500      -0.76854100       1.57704100
C        1.05506700      -2.67151600       2.64584800
N        0.65490300      -3.46276700       1.48720800
H       -0.49547100       0.15581700       1.64553400
H       -0.65101400      -1.33071600       0.94463400
H        0.49045100      -0.81990500       3.61009800
H       -0.89707700      -1.83321400       3.15795800
H        1.10529300      -3.23871500       3.58698300
H        2.05446100      -2.27562500       2.44041700
H       -0.19607100      -3.98842100       1.66199000
H        1.39207900      -4.10936000       1.23111900
H        0.87575600      -0.60338300       1.14024000
