57
3sa1am1ma1tma1eda-24
S       -2.42915200      -2.22376100       0.63690200
O       -1.07240700      -2.77553600       0.28435300
O       -2.96610000      -1.46639200      -0.51638900
O       -3.31651200      -3.19265700       1.24687100
O       -2.13358400      -1.12967100       1.78638700
H       -1.91258400      -0.23380400       1.39244400
S        3.70934100      -1.32427400      -0.87516300
O        3.53346300      -1.12394500       0.57249500
O        2.55582400      -1.96562100      -1.53596800
O        4.19930700      -0.12930800      -1.58928700
O        4.91190800      -2.41260400      -0.93963400
H        5.08341800      -2.61857400      -1.86853400
S       -0.61725600       1.51849600      -0.21365300
O       -1.60706600       1.27228100       0.89408500
O       -1.22568300       1.02568400      -1.50359200
O       -0.23376200       2.93962900      -0.29763000
O        0.62235600       0.66709300       0.05779700
N       -0.16279300      -1.47529900      -1.96499900
H        0.86833000      -1.47028300      -1.87651300
H       -0.55044200      -2.04933500      -1.18135600
H       -0.55612700      -0.50773400      -1.87220200
H       -0.43494500      -1.88641900      -2.85253500
C        0.86026600      -1.44046300       3.09763900
N        0.97142200      -1.51502800       1.62762500
H        0.29945600      -2.19755900       1.22431100
H        0.73541000      -0.60739700       1.16662700
H        1.14693100      -2.39828000       3.53170400
H        1.52254300      -0.65720100       3.46728400
H       -0.17482200      -1.21468200       3.35200800
H        1.93385700      -1.71056300       1.31131100
N       -4.00653400       1.13088800      -0.83143100
C       -3.80905000       2.59168100      -1.01248500
C       -4.64793400       0.50677000      -2.01397900
C       -4.74140600       0.83090100       0.42368100
H       -4.69063600      -0.56847200      -1.84559800
H       -5.64743000       0.92824300      -2.14125700
H       -4.03290800       0.72075400      -2.88842300
H       -3.29752200       2.98056400      -0.13269300
H       -3.17864900       2.75035100      -1.88624400
H       -4.78537700       3.06474900      -1.13835800
H       -4.15958200       1.22519000       1.25610300
H       -5.72372400       1.30633100       0.37575100
H       -4.83318300      -0.24976200       0.51842600
H       -3.06340900       0.70496700      -0.75648100
C        2.47460500       3.14088100       1.75645800
N        2.12312400       4.29028200       0.92451100
C        3.46055200       2.24732000       1.00281500
N        2.91890000       2.00359100      -0.35535800
H        2.19398700       5.16590100       1.42411000
H        1.17586800       4.18533300       0.56580500
H        2.94534800       3.45671600       2.69227200
H        1.58547700       2.55332100       2.01604100
H        3.60407300       1.27411600       1.47677600
H        4.42826600       2.74221200       0.89120300
H        2.00031300       1.49223100      -0.27345800
H        3.54159300       1.40594600      -0.92717800
H        2.73658000       2.91056400      -0.79383600
57
3sa1am1ma1tma1eda-31
S        2.40059600      -2.35244900      -0.37881100
O        2.73629500      -1.15891200      -1.18884500
O        0.96650000      -2.74118100      -0.63465100
O        3.33172200      -3.45953800      -0.44072100
O        2.41078300      -1.86596800       1.15832800
H        2.11438900      -0.90998300       1.23304100
S       -3.86236500      -1.20547900      -0.42284500
O       -3.24004500      -2.37874700       0.21560000
O       -4.53192900      -0.30505600       0.53562500
O       -2.99482500      -0.49413700      -1.37860600
O       -5.02661500      -1.79807400      -1.38628800
H       -5.59943900      -2.36435900      -0.85137100
S        0.63180000       1.35939300       0.78112100
O        0.39840500       2.68783800       1.37347600
O        0.97722300       1.47181500      -0.69075600
O        1.75692500       0.63572000       1.46916100
O       -0.62759500       0.50457800       0.87996500
N       -0.24508100      -0.65099300      -1.94638800
H       -1.25563600      -0.62602600      -1.71893400
H       -0.11408000      -0.67563200      -2.95306600
H        0.23625300       0.18733700      -1.53536500
H        0.19520300      -1.50156700      -1.52477200
C       -0.42086300      -2.66379400       2.80281300
N       -0.73064600      -2.17137900       1.44635100
H       -0.62127100      -1.13552500       1.36871800
H       -0.08425400      -2.56980500       0.73344100
H       -1.07237800      -2.17020700       3.52386600
H       -0.57780000      -3.74169600       2.83974200
H        0.62265900      -2.43894300       3.02120700
H       -1.69756200      -2.37503600       1.14114600
N        3.85812300       1.32478800      -0.48226700
C        3.70256500       2.70830000       0.03515100
C        4.77259000       0.52452900       0.37185400
C        4.27168200       1.30867200      -1.90629400
H        4.83313700      -0.48275800      -0.03646500
H        5.75369800       1.00469000       0.37835100
H        4.35133400       0.48959000       1.37592600
H        2.95349500       3.22041600      -0.56693400
H        3.35075700       2.65398000       1.06481000
H        4.66870800       3.21435800      -0.02261100
H        3.53138800       1.86393900      -2.48272500
H        5.25363900       1.77804600      -1.99721500
H        4.29692900       0.27186400      -2.23868900
H        2.92265700       0.87809400      -0.44743300
C       -3.01182400       2.67936600      -0.65442200
N       -2.90956300       1.95456700       0.63543800
C       -1.89689600       3.72521700      -0.71496100
N       -1.84180600       4.45614600       0.55109800
H       -3.67359300       1.26487700       0.74679200
H       -2.90033100       2.65869600       1.38016600
H       -2.94866300       1.94028400      -1.45426600
H       -3.99616200       3.15398600      -0.68064500
H       -2.10020500       4.39178300      -1.55915300
H       -0.94227700       3.22506600      -0.91342400
H       -1.90987000       5.45702300       0.42913900
H       -0.97715000       4.23113700       1.03820900
H       -2.00952300       1.41059200       0.70432700
57
3sa1am1ma1tma1eda-22
S        1.53384000       2.57731400       0.07676900
O        2.09059000       2.07991900      -1.20821300
O        1.94941200       3.90003600       0.48139200
O        0.05558900       2.32069800       0.12123600
O        2.10865500       1.57783900       1.21982100
H        1.89830900       0.65212900       0.92401400
H       -1.53861900       2.76597800      -0.45062400
S       -3.17471100       1.37336500      -0.58353700
O       -3.32364400       1.14102300       0.87609900
O       -2.18316200       0.37451700      -1.13534900
O       -4.41681900       1.43278100      -1.32564100
O       -2.46730700       2.78982400      -0.78494800
S        1.05895800      -2.10576800       0.08392900
O        2.11644600      -3.10330500       0.29766900
O        0.38459000      -2.26269700      -1.25964400
O        0.01498700      -2.10044200       1.16210000
O        1.69925600      -0.70365900       0.05865600
N        0.27130000       0.32204200      -2.32816700
H        1.01014900       0.94408100      -1.92632100
H        0.44381800      -0.66888400      -2.05061600
H       -0.64777700       0.57856500      -1.91293000
H        0.23025700       0.42201100      -3.33784400
C       -0.57191400       0.76388600       3.31168000
N       -0.85675700       0.41199500       1.90707500
H       -1.86429000       0.49575800       1.67682200
H       -0.40571300       1.08961700       1.26095000
H       -1.03419000       0.02834400       3.96984300
H        0.50725800       0.77303000       3.46151700
H       -0.97414500       1.75546100       3.51847900
H       -0.51657100      -0.54498400       1.66441800
N        4.30986800      -0.81193600      -0.21396400
C        4.77658600      -1.46234000       1.03497300
C        4.55187800      -1.66999100      -1.39835600
C        4.86007000       0.55586500      -0.38071500
H        4.15488100      -1.16444600      -2.27944100
H        5.62582000      -1.83381500      -1.51532300
H        4.02475000      -2.61305100      -1.24530900
H        4.53090200      -0.81171900       1.87503300
H        4.24663100      -2.41016700       1.13893900
H        5.85766900      -1.61264900       0.98243100
H        4.62517300       1.13892000       0.50999200
H        5.94110400       0.49238300      -0.52674700
H        4.37368700       1.03236900      -1.23210000
H        3.24811400      -0.73724100      -0.12656200
C       -3.58748300      -2.90314000      -0.64675500
N       -2.25962700      -2.27396300      -0.48907000
C       -4.62007600      -2.04160700       0.08632300
N       -4.15381100      -1.73087600       1.43584600
H       -1.47222400      -2.68565900      -1.01277800
H       -1.95822500      -2.29265300       0.49281100
H       -3.81763200      -2.97255300      -1.71230500
H       -3.53236300      -3.91077000      -0.22736300
H       -5.57970700      -2.57029100       0.07785500
H       -4.76806500      -1.11282800      -0.47518000
H       -4.68937800      -2.20401900       2.15131400
H       -4.18383400      -0.72875300       1.59888000
H       -2.28509300      -1.26188400      -0.75681400
