3sa_1a.log
 OpenBabel02271919093D
Gaussian kemi/andersx/programs/g09/g09 # opt freq wb97xd 6-31++g(d,p)
 25 21  0  0  0  0  0  0  0  0999 V2000
   -0.0929    0.4507    2.5421 N   0  0  0  0  0  0  0  0  0  0  0  0
    0.2333    1.3881    2.2371 H   0  0  0  0  0  0  0  0  0  0  0  0
    0.6278   -0.2294    2.2527 H   0  0  0  0  0  0  0  0  0  0  0  0
   -0.9671    0.1974    2.0341 H   0  0  0  0  0  0  0  0  0  0  0  0
    1.7299   -1.7560   -0.0625 S   0  0  0  0  0  0  0  0  0  0  0  0
    2.4697   -0.8837   -1.1036 O   0  0  0  0  0  0  0  0  0  0  0  0
    1.8275   -1.1827    1.2668 O   0  0  0  0  0  0  0  0  0  0  0  0
   -0.2413    0.4172    3.5468 H   0  0  0  0  0  0  0  0  0  0  0  0
    0.4273   -2.1712   -0.5552 O   0  0  0  0  0  0  0  0  0  0  0  0
    1.0307    2.0759   -0.1814 S   0  0  0  0  0  0  0  0  0  0  0  0
    2.3641    1.5816   -0.5938 O   0  0  0  0  0  0  0  0  0  0  0  0
    0.6425    3.2681   -1.1895 O   0  0  0  0  0  0  0  0  0  0  0  0
   -0.0177    1.0680   -0.4248 O   0  0  0  0  0  0  0  0  0  0  0  0
    1.0072    2.6376    1.1768 O   0  0  0  0  0  0  0  0  0  0  0  0
    2.4281    0.1317   -0.9002 H   0  0  0  0  0  0  0  0  0  0  0  0
    1.1820    4.0460   -0.9878 H   0  0  0  0  0  0  0  0  0  0  0  0
   -2.9081   -0.4412   -0.1051 S   0  0  0  0  0  0  0  0  0  0  0  0
   -2.1416   -1.4220   -1.0800 O   0  0  0  0  0  0  0  0  0  0  0  0
   -2.6248    0.9891   -0.7035 O   0  0  0  0  0  0  0  0  0  0  0  0
   -4.3105   -0.6928   -0.2342 O   0  0  0  0  0  0  0  0  0  0  0  0
   -2.2721   -0.5321    1.2128 O   0  0  0  0  0  0  0  0  0  0  0  0
   -1.1993   -1.5504   -0.8234 H   0  0  0  0  0  0  0  0  0  0  0  0
   -1.6501    1.1826   -0.6624 H   0  0  0  0  0  0  0  0  0  0  0  0
    2.6529   -3.0540   -0.0394 O   0  0  0  0  0  0  0  0  0  0  0  0
    2.4009   -3.6433   -0.7661 H   0  0  0  0  0  0  0  0  0  0  0  0
  1  8  1  0  0  0  0
  2  1  1  0  0  0  0
  3  1  1  0  0  0  0
  4  1  1  0  0  0  0
  5 24  1  0  0  0  0
  5  7  2  0  0  0  0
  6 15  1  0  0  0  0
  6  5  1  0  0  0  0
  9  5  2  0  0  0  0
 10 14  1  0  0  0  0
 11 10  2  0  0  0  0
 12 16  1  0  0  0  0
 12 10  1  0  0  0  0
 13 10  2  0  0  0  0
 17 21  2  0  0  0  0
 18 22  1  0  0  0  0
 18 17  1  0  0  0  0
 19 23  1  0  0  0  0
 19 17  1  0  0  0  0
 20 17  2  0  0  0  0
 25 24  1  0  0  0  0
M  RAD  1  14   2
M  END
$$$$
