63
4sa1am1ma2eda-15
S        1.28133800      -1.51623600       1.75015400
O        1.44846400      -2.66716400       0.86238000
O        0.83888600      -0.29392100       0.98401600
O        0.38876700      -1.75905200       2.90364900
O        2.66081500      -1.13494200       2.41655800
H        3.32953800      -0.89423600       1.71072100
S        4.05193000      -0.09972000      -0.82260100
O        4.35579400      -0.32184200       0.60813000
O        3.40904100      -1.26012400      -1.46762100
O        3.38576300       1.17806000      -1.10382100
O        5.49365700       0.07325700      -1.53811100
H        6.04349300      -0.68579900      -1.29936200
S       -1.38150700       3.17467700       0.07979500
O       -1.07841000       2.81316500       1.51637800
O       -2.17558800       1.99769700      -0.48802700
O       -2.09687300       4.43464200      -0.07528100
O       -0.05405200       3.15635600      -0.67963300
S       -2.80911000      -1.57773400      -1.23018600
O       -3.73044500      -0.84450000      -0.27229300
O       -3.36379800      -2.85423700      -1.67232300
O       -2.44240000      -0.65340500      -2.35713700
O       -1.50421200      -1.81635800      -0.42468400
N       -4.28260900       1.39573800      -1.74176500
H       -4.43403000       0.55775200      -1.14253600
H       -3.97052200       1.02980000      -2.64125000
H       -5.10165200       1.98777100      -1.82930000
H       -3.43812300       1.88744700      -1.26764700
C        2.15424700       3.20681400       2.15464500
N        1.89555100       2.35714800       0.97592900
H        1.52419500       1.43299900       1.24036400
H        1.15968700       2.78341400       0.34589100
H        2.85407200       2.70445400       2.82285600
H        2.57329400       4.15636000       1.82239600
H        1.20119900       3.38377500       2.65283400
H        2.72301300       2.16793400       0.39544700
C       -2.39307400      -0.38000000       2.90406700
C       -2.98139700      -1.76247200       2.63888500
N       -1.99323800      -2.67827100       2.00353200
N       -1.92369000       0.28109500       1.67147500
H       -1.70492000       1.31490200       1.77854500
H       -2.60000700       0.17900400       0.89378000
H       -3.17592700       0.24000600       3.34563600
H       -1.55150900      -0.43515300       3.59655300
H       -3.83607600      -1.69488700       1.96250400
H       -3.29439800      -2.19476000       3.59164600
H       -1.81406300      -2.39614900       0.97550600
H       -2.32520100      -3.64014000       2.00492800
H       -1.03137300      -0.11592500       1.33843300
H       -1.06550300      -2.61022900       2.47470500
C        0.60676900      -1.34825600      -3.05376700
N        0.81921500      -2.15077800      -1.81751300
C        0.78841100       0.14135200      -2.78834700
N       -0.04653200       0.60603100      -1.66043100
H        0.88732600      -3.14476500      -2.02930500
H       -0.00342700      -2.05245400      -1.16701100
H        1.34099000      -1.66146400      -3.79742100
H       -0.40441900      -1.56011500      -3.40770300
H        0.48237300       0.69043400      -3.68063000
H        1.82566700       0.38691700      -2.56113600
H       -1.04531400       0.35411600      -1.81027700
H        0.00492900       1.64282200      -1.49041600
H        0.24527100       0.17596900      -0.76907200
H        1.70511400      -1.88801100      -1.34321200
63
4sa1am1ma2eda-29
S       -3.52809200       1.12144500      -0.81541800
O       -2.74821600       0.38845400      -1.86476400
O       -4.62173700       1.90619800      -1.33923600
O       -4.22031600       0.00628800       0.10287500
O       -2.57739600       1.86104100       0.07353800
H       -1.34008500       2.59074500      -0.65349000
H       -3.60631100      -0.51022800       0.68141300
S       -1.51252500      -2.00164100       1.25523300
O       -1.02003900      -0.78662500       0.48185300
O       -0.50694400      -2.35336000       2.30949900
O       -2.83071400      -1.64246700       1.82496100
O       -1.61137500      -3.16553000       0.28577900
S        0.65971000       3.08843600       0.02478600
O       -0.01313400       3.49661100       1.27607000
O       -0.48223200       2.90662400      -1.08322000
O        1.63414700       4.01161300      -0.53259900
O        1.24231400       1.70719900       0.18022700
S        3.04464900      -1.60139500      -0.64588900
O        3.62940700      -0.84725000       0.54626400
O        3.85705400      -2.75473400      -1.02500600
O        1.63738000      -2.03616000      -0.23181600
O        2.84676900      -0.60314900      -1.76444500
N        0.88354500      -4.26973200       0.73020700
H       -0.12480800      -4.15190700       0.50254100
H        0.95247800      -4.26313600       1.74535800
H        1.28655900      -5.11528400       0.33831900
H        1.35841100      -3.36511400       0.32757900
C        4.74417000       2.76039600      -0.24343200
N        3.89294000       1.60084600      -0.56638000
H        3.94081500       1.29480400      -1.53968900
H        4.07846400       0.72501600      -0.02049600
H        4.39619300       3.62543000      -0.80671800
H        4.65348200       2.97516600       0.82104600
H        5.78220000       2.53224600      -0.48524200
H        2.88616400       1.78445100      -0.37278500
C        1.09983900       0.62063800       3.09340900
N        1.34121900      -0.34721600       2.00415100
C       -0.38186500       0.73014700       3.44856100
N       -1.19540100       1.25662000       2.32358300
H        2.33993500      -0.52389900       1.75859500
H        0.95548000       0.01924100       1.12492900
H        1.63977900       0.28727100       3.98178900
H        1.49540400       1.58767300       2.77584500
H       -0.48467100       1.41576400       4.29184600
H       -0.78877400      -0.24538400       3.72516700
H       -0.83763500       2.17614600       1.96882800
H       -2.17531300       1.37823300       2.57867700
H       -1.21145700       0.59115000       1.51192500
H        0.84272500      -1.24749800       2.16252800
C       -0.23935600      -0.66129600      -3.09530400
N        0.18807400       0.07239400      -1.87911000
C       -0.66945600      -2.07842900      -2.74676600
N       -2.03144400      -2.11849200      -2.12765400
H       -0.01833700       1.07593000      -1.92919200
H        1.21751000      -0.07519900      -1.73351800
H       -1.04814500      -0.10687700      -3.57387700
H        0.61804100      -0.70742900      -3.76896400
H        0.04129100      -2.50621700      -2.03321900
H       -0.67419200      -2.69074200      -3.64931900
H       -2.40256500      -1.13507400      -1.93987300
H       -1.98540500      -2.61199000      -1.19403600
H       -2.70973100      -2.58531000      -2.72418300
H       -0.28965900      -0.27519700      -1.02340400
63
4sa1am1ma2eda-21
S       -2.05700000       2.33625300      -0.90519500
O       -1.40658100       1.08773400      -1.39921600
O       -1.27412900       3.53122300      -1.24085300
O       -2.07227600       2.21409700       0.70256400
O       -3.48860100       2.38460300      -1.23352400
H       -1.15499000       2.38422800       1.04178500
H       -2.24936300      -0.26954800      -1.61835600
S        1.58550200       2.78582100       0.59000400
O        1.82230000       1.74198100      -0.43310800
O        0.45345000       2.40310400       1.49376800
O        2.80922500       3.12703500       1.32020600
O        1.13586000       4.11113900      -0.14798100
H        0.26737400       3.95417500      -0.60519000
S       -2.12635100      -2.06019200      -0.43749300
O       -2.41922900      -1.24143300       0.78772800
O       -2.67028900      -1.17931200      -1.65910700
O       -0.64757300      -2.13440200      -0.62742100
O       -2.84240600      -3.31416200      -0.50403500
H       -6.44771700      -1.63520300       2.57105000
S        2.74666200      -2.46155100      -0.14810100
O        2.32577000      -1.16486900       0.49892800
O        2.75248500      -2.29377200      -1.61687900
O        3.96332200      -3.01060900       0.42871100
O        1.59023000      -3.50169500       0.22605500
H        0.72897500      -3.18545800      -0.13163300
N        0.89743700      -0.27987200      -2.05192900
H        0.17462000      -0.85384600      -1.58510900
H        1.72442400      -0.89838600      -2.14074200
H        0.54309600       0.04938000      -2.94509700
H        1.11296800       0.53442500      -1.44568500
C        0.17920700      -0.93942400       3.12761700
N        0.05056800      -0.35470900       1.77707500
H        0.78131600      -0.75356200       1.15506900
H       -0.88179000      -0.56531800       1.37472600
H        1.17660500      -0.73124200       3.51363600
H       -0.57250200      -0.50368700       3.78528200
H        0.03299300      -2.01703100       3.05893000
H        0.19768800       0.67036200       1.77507100
C       -6.00515900      -1.59440400       0.55455700
C       -5.56070800      -0.47579600      -0.38049500
N       -4.62581700       0.41001900       0.35961700
N       -6.53687900      -1.00345600       1.78476000
H       -7.51903600      -0.76702400       1.69363100
H       -5.07372900       0.68047700       1.24000700
H       -5.13629500      -2.21134700       0.80284800
H       -6.71613400      -2.23789600       0.02226200
H       -6.40620500       0.13539100      -0.70732400
H       -5.03610900      -0.86361900      -1.25435300
H       -4.34027400       1.24346100      -0.19559200
H       -3.75972200      -0.11950300       0.59847900
C        5.05345600       0.96235000      -0.49689900
N        4.30722800       0.77581300       0.77181800
C        5.69571000      -0.37784000      -0.87596700
N        6.28630100      -0.99326300       0.31280300
H        3.92363300       1.66990900       1.12628000
H        4.96028600       0.32932800       1.42745500
H        4.35122900       1.32422200      -1.24914400
H        5.80994400       1.72956000      -0.31478700
H        6.43485800      -0.19575500      -1.66242400
H        4.93428100      -1.03800500      -1.30225600
H        7.29094400      -1.08589900       0.24920900
H        5.87640600      -1.90822200       0.48157100
H        3.51182200       0.11401500       0.63440700
