64
3sa1ma1dma2tma-36
S       -2.16731900       1.69402200       0.60732800
O       -0.94868400       2.39950400       1.07190400
O       -2.41465500       0.47689800       1.42822300
O       -1.83146200       1.15209300      -0.87680500
O       -3.33891600       2.54093200       0.40493600
H       -1.12316500       0.43225800      -0.83224200
H        0.38209900       2.91518800      -0.09727800
S        3.01259500       0.72636600       0.23413400
O        2.48440500       0.13659200      -1.17306600
O        3.22329800      -0.46634300       1.10049200
O        1.89679700       1.56252400       0.75474400
O        4.21062900       1.47812300      -0.10848800
H        0.72076300       0.57655200       1.63626000
H        1.53151800      -0.18171000      -1.06158100
S       -0.23595200      -2.10935800      -0.61180300
O        0.10752900      -2.46068100       0.80467600
O        0.03940900      -0.60802000      -0.79116800
O        0.65104600      -2.85998700      -1.54668100
O       -1.67391400      -2.35230300      -0.90843900
H       -3.06496900      -1.56415200      -0.44496400
H        2.13938700      -2.83360100      -0.85012300
N        0.23963300      -0.12297300       2.23530000
H        0.29270700      -1.04295600       1.74317600
H       -0.76031100       0.12963400       2.24531200
C        0.86698200      -0.15865000       3.56643800
H        1.92722300      -0.37728400       3.43632400
H        0.74967800       0.81359200       4.04560700
H        0.39422300      -0.93028800       4.17528200
N        3.03773100      -2.82624800      -0.29366800
H        3.02869500      -1.95010500       0.27586500
C        3.02152800      -3.99094700       0.61210400
H        2.09607400      -3.94668900       1.18715200
H        3.04298300      -4.90702600       0.01915600
H        3.89058500      -3.95168600       1.27160600
C        4.19321900      -2.75982600      -1.20883500
H        4.19029400      -3.63629400      -1.85914900
H        4.10140100      -1.84950100      -1.80155300
H        5.11543100      -2.72633100      -0.62615300
N        0.61244200       3.59143700      -0.85670900
C        0.76880100       2.81756900      -2.11618100
C       -0.53941200       4.52606800      -0.93875300
C        1.86592600       4.29602900      -0.48351800
H       -0.67477000       5.00127100       0.03181500
H       -0.33163900       5.27069200      -1.71042400
H       -1.43891500       3.96076500      -1.18018000
H        1.59376600       2.11510700      -2.00161300
H       -0.15776400       2.27166900      -2.29423500
H        0.96941500       3.51674000      -2.93131000
H        2.67711400       3.57208900      -0.41925600
H        2.07685800       5.05417900      -1.24129800
H        1.72181100       4.76441700       0.49017000
N       -4.11215100      -1.61413300      -0.33650000
C       -4.50634400      -2.76923300      -1.18098800
C       -4.38702200      -1.86831100       1.09975500
C       -4.74241500      -0.35627800      -0.81059500
H       -4.02643000      -1.00971000       1.66535800
H       -5.46176500      -2.01190500       1.23550100
H       -3.84195300      -2.76465700       1.39778400
H       -4.24425300      -2.54998800      -2.21571500
H       -3.94527300      -3.64417100      -0.85578000
H       -5.58211300      -2.93285400      -1.08356000
H       -4.36228400      -0.13065900      -1.80656500
H       -5.82559400      -0.49926200      -0.83759900
H       -4.48501600       0.46045100      -0.13849100
64
3sa1ma1dma2tma-1
S       -2.73718600       1.61109200      -0.02951600
O       -2.65779700       1.21228500       1.40117400
O       -2.82048200       3.05556200      -0.24104600
O       -1.25174100       1.26061400      -0.62810600
O       -3.68241800       0.78510600      -0.78998400
H       -2.55398700      -1.86501300      -0.61226300
H       -1.14055100       0.27798400      -0.77924400
S        2.70840300       1.75478800       0.01259300
O        1.83169800       1.81106600       1.21233300
O        3.92743200       0.96386400       0.21136000
O        1.83133300       1.00623300      -1.12404800
O        2.90914300       3.08603600      -0.59093700
H        1.23827200       3.56364300      -0.92270500
H        1.49940300       0.14499100      -0.75307600
S       -0.02669400      -2.12528900      -0.07057700
O        1.22149400      -1.25088800       0.06576700
O       -0.62699400      -2.27634900       1.29252300
O       -1.00638700      -1.34646400      -0.93937100
O        0.32094700      -3.41353900      -0.68840700
H        2.59808600      -1.98884200      -0.13569700
C       -0.00651600       0.53122800       3.73908000
N       -0.22212000       0.31623800       2.29724200
H        0.55783800       0.73513200       1.75257900
H       -0.29159200      -0.69232700       2.05355500
H        0.05831800       1.60134600       3.93495300
H       -0.83982600       0.10533800       4.29834600
H        0.92553300       0.05283800       4.03969900
H       -1.11789600       0.74645600       1.97664600
N        0.20632900       3.66749100      -0.82229100
H       -0.16662600       2.70816500      -0.70281600
C       -0.05666000       4.44455300       0.41214000
H        0.46683000       3.94641500       1.22847900
H        0.33668700       5.45397600       0.28104700
H       -1.13228800       4.45903100       0.58788900
C       -0.40148800       4.23619400      -2.04391200
H       -0.01082300       5.24260500      -2.20268800
H       -0.13980500       3.59759700      -2.88763500
H       -1.48363400       4.25291400      -1.91007700
N        3.55952100      -2.40425800      -0.32860300
C        4.05523700      -1.73466300      -1.55839200
C        4.41046900      -2.09323800       0.84675500
C        3.38195500      -3.86246100      -0.52460000
H        3.96982800      -2.56479000       1.72611100
H        5.41504300      -2.48813800       0.67535700
H        4.43501900      -1.00934600       0.97083400
H        3.33166100      -1.90385900      -2.35659100
H        4.14641000      -0.66673300      -1.35408800
H        5.02463900      -2.16016000      -1.82969500
H        2.66692100      -4.02324300      -1.33041900
H        4.35173500      -4.31138000      -0.75400900
H        2.96780900      -4.29259700       0.38717100
N       -3.43989500      -2.39618300      -0.39305100
C       -3.93397800      -1.91612900       0.92382000
C       -4.40688500      -2.12729300      -1.48531000
C       -3.05180600      -3.82852400      -0.33910800
H       -3.96672600      -2.45861200      -2.42664600
H       -5.32762300      -2.68125200      -1.28663000
H       -4.59228700      -1.05459600      -1.51813200
H       -3.13208000      -2.05730500       1.64857000
H       -4.17062800      -0.85629800       0.83799000
H       -4.81704700      -2.49832600       1.19948800
H       -2.33833100      -3.96395000       0.47356800
H       -3.94823200      -4.43154300      -0.17641000
H       -2.57105700      -4.09880700      -1.27944400
64
3sa1ma1dma2tma-27
S       -1.76616100       2.43934100       0.45798200
O       -0.32986000       2.34192900       0.88878500
O       -2.60000300       1.48486800       1.21468800
O       -2.24423100       3.81142400       0.37989900
O       -1.75346300       1.93485800      -1.07679700
H       -1.56302200       0.95817200      -1.09410900
S       -0.69787400      -1.88347700      -1.00569400
O       -1.61576000      -0.66549900      -0.95151600
O       -0.37256600      -2.25040500       0.44016900
O       -1.37128100      -2.99939600      -1.68006200
O        0.58350900      -1.47770300      -1.66977100
H        1.36575500      -0.34138400      -0.91537200
S        3.18813400      -0.08132100       0.30864700
O        2.77216900      -0.61624400       1.63273700
O        1.81585100       0.40854900      -0.40286200
O        3.99356300       1.13580300       0.37273900
O        3.72431100      -1.15813800      -0.55472700
H        2.76372500      -2.54675300      -0.26301600
C       -0.56003400      -0.03908100       3.39307600
N        0.10937000      -0.07504700       2.08209400
H       -0.03260600       0.82846600       1.57751500
H        1.13366400      -0.22897100       2.13646800
H       -1.59747600       0.25989500       3.24207400
H       -0.50722200      -1.02268000       3.86181100
H       -0.06729900       0.69650800       4.02935600
H       -0.24076700      -0.84444800       1.47346200
N        2.16927900      -3.33788500       0.07936200
H        1.23605800      -2.91753600       0.29988600
C        1.98948500      -4.32798700      -1.00416800
H        1.54364500      -3.81702700      -1.85718900
H        2.96205400      -4.74409500      -1.27223900
H        1.32162900      -5.11903400      -0.65996400
C        2.77449500      -3.87315700       1.31504700
H        3.74438100      -4.31339000       1.07787500
H        2.90953200      -3.04213100       2.00782300
H        2.11539300      -4.63217000       1.74046700
N       -4.03858300      -1.17177600      -0.15607000
C       -4.47382900      -2.34339000      -0.95336900
C       -3.81826100      -1.51915600       1.26817400
C       -4.94391400      -0.00823300      -0.31063800
H       -3.45596100      -0.62394100       1.77406900
H       -4.75775000      -1.86276200       1.70866000
H       -3.06054300      -2.30351500       1.31603100
H       -4.60215300      -2.03086200      -1.98993700
H       -3.68895600      -3.10041100      -0.91743800
H       -5.41773700      -2.72263100      -0.55363500
H       -4.99696800       0.25301600      -1.36810700
H       -5.93755300      -0.27494700       0.05912200
H       -4.52503800       0.82662900       0.25297600
H       -3.06791100      -0.90305200      -0.52302900
N        1.57282100       3.30200300      -0.92211200
C        0.53177500       4.21963400      -1.45652300
C        2.30462600       3.90970000       0.22237500
C        2.50163900       2.84954200      -1.99100400
H        3.02457800       3.17703400       0.59053400
H        2.81293200       4.81064700      -0.12820100
H        1.57356000       4.15156300       0.99331900
H       -0.04129200       3.69261700      -2.21892100
H       -0.14165400       4.50971600      -0.65041500
H        1.02992200       5.09367700      -1.88117200
H        1.93392500       2.28270800      -2.72866500
H        2.94795300       3.73331000      -2.45235800
H        3.26781700       2.21836200      -1.54325900
H        1.08578100       2.47808400      -0.52637900
