1ca_1sa_m062x.log
 OpenBabel01212108593D
Gaussian kemi/andersx/programs/g09/g09 # opt freq 6-31++g(d,p) geom=connectivity
 34 33  0  0  1  0  0  0  0  0999 V2000
   -3.3216   -0.1671    0.2062 S   0  0  0  0  0  0  0  0  0  0  0  0
   -4.7350   -0.0762    0.0061 O   0  0  0  0  0  0  0  0  0  0  0  0
   -2.7153   -1.4553    0.5414 O   0  0  0  0  0  0  0  0  0  0  0  0
   -2.5559    0.3855   -1.0646 O   0  0  0  0  0  0  0  0  0  0  0  0
   -1.7088   -0.1667   -1.2448 H   0  0  0  0  0  0  0  0  0  0  0  0
   -2.9325    0.8937    1.3075 O   0  0  0  0  0  0  0  0  0  0  0  0
   -1.9376    0.9763    1.3406 H   0  0  0  0  0  0  0  0  0  0  0  0
    2.4129    0.6279    0.6403 C   0  0  1  0  0  0  0  0  0  0  0  0
    2.4954   -0.8677    0.4049 C   0  0  2  0  0  0  0  0  0  0  0  0
    3.7370   -0.0122    0.3042 C   0  0  0  0  0  0  0  0  0  0  0  0
    1.8552   -1.5388   -0.8036 C   0  0  0  0  0  0  0  0  0  0  0  0
    2.4131   -1.4692    1.3066 H   0  0  0  0  0  0  0  0  0  0  0  0
    2.2834    0.9087    1.6829 H   0  0  0  0  0  0  0  0  0  0  0  0
    1.6793    1.5449   -0.3082 C   0  0  0  0  0  0  0  0  0  0  0  0
    4.3997    0.2387   -1.0362 C   0  0  0  0  0  0  0  0  0  0  0  0
    4.7370   -0.1414    1.4367 C   0  0  0  0  0  0  0  0  0  0  0  0
    3.6943    0.3914   -1.8553 H   0  0  0  0  0  0  0  0  0  0  0  0
    5.0428   -0.6069   -1.3039 H   0  0  0  0  0  0  0  0  0  0  0  0
    5.0309    1.1319   -0.9779 H   0  0  0  0  0  0  0  0  0  0  0  0
    4.2351   -0.3307    2.3900 H   0  0  0  0  0  0  0  0  0  0  0  0
    5.3248    0.7775    1.5392 H   0  0  0  0  0  0  0  0  0  0  0  0
    5.4303   -0.9683    1.2477 H   0  0  0  0  0  0  0  0  0  0  0  0
    2.1525   -2.5915   -0.8307 H   0  0  0  0  0  0  0  0  0  0  0  0
    2.1389   -1.0740   -1.7482 H   0  0  0  0  0  0  0  0  0  0  0  0
    0.3572   -1.4542   -0.6859 C   0  0  0  0  0  0  0  0  0  0  0  0
   -0.1424   -2.1566    0.2976 O   0  0  0  0  0  0  0  0  0  0  0  0
    2.0670    2.5702   -0.2566 H   0  0  0  0  0  0  0  0  0  0  0  0
    0.2022    1.6018   -0.0127 C   0  0  0  0  0  0  0  0  0  0  0  0
    1.7641    1.2423   -1.3564 H   0  0  0  0  0  0  0  0  0  0  0  0
   -0.4712    2.3089   -0.9094 O   0  0  0  0  0  0  0  0  0  0  0  0
   -1.4305    2.1742   -0.7966 H   0  0  0  0  0  0  0  0  0  0  0  0
   -1.1111   -1.9719    0.4071 H   0  0  0  0  0  0  0  0  0  0  0  0
   -0.3218    1.0458    0.9414 O   0  0  0  0  0  0  0  0  0  0  0  0
   -0.3134   -0.7352   -1.4299 O   0  0  0  0  0  0  0  0  0  0  0  0
  1  3  2  0  0  0  0
  1  6  1  0  0  0  0
  2  1  2  0  0  0  0
  4  1  1  0  0  0  0
  5  4  1  0  0  0  0
  6  7  1  0  0  0  0
  8 13  1  1  0  0  0
  9  8  1  0  0  0  0
  9 12  1  1  0  0  0
 10  9  1  0  0  0  0
 10  8  1  0  0  0  0
 10 16  1  0  0  0  0
 11 25  1  0  0  0  0
 11  9  1  0  0  0  0
 14 27  1  0  0  0  0
 14 28  1  0  0  0  0
 14  8  1  0  0  0  0
 15 19  1  0  0  0  0
 15 10  1  0  0  0  0
 16 21  1  0  0  0  0
 16 20  1  0  0  0  0
 17 15  1  0  0  0  0
 18 15  1  0  0  0  0
 22 16  1  0  0  0  0
 23 11  1  0  0  0  0
 24 11  1  0  0  0  0
 25 26  1  0  0  0  0
 26 32  1  0  0  0  0
 28 33  2  0  0  0  0
 29 14  1  0  0  0  0
 30 31  1  0  0  0  0
 30 28  1  0  0  0  0
 34 25  2  0  0  0  0
M  END
$$$$
