1ca_wb97xd.log
 OpenBabel01212108593D
Gaussian kemi/andersx/programs/g09/g09 # opt freq 6-31++g(d,p) geom=connectivity
 27 27  0  0  1  0  0  0  0  0999 V2000
    0.7588    0.2629   -0.9386 C   0  0  1  0  0  0  0  0  0  0  0  0
   -0.7588    0.2629   -0.9387 C   0  0  2  0  0  0  0  0  0  0  0  0
   -0.0000    1.1233    0.0460 C   0  0  0  0  0  0  0  0  0  0  0  0
   -1.5808   -0.9303   -0.5209 C   0  0  0  0  0  0  0  0  0  0  0  0
   -1.2142    0.8111   -1.7604 H   0  0  0  0  0  0  0  0  0  0  0  0
    1.2143    0.8112   -1.7603 H   0  0  0  0  0  0  0  0  0  0  0  0
    1.5809   -0.9303   -0.5208 C   0  0  0  0  0  0  0  0  0  0  0  0
   -0.0001    0.7749    1.5221 C   0  0  0  0  0  0  0  0  0  0  0  0
   -0.0000    2.6179   -0.2013 C   0  0  0  0  0  0  0  0  0  0  0  0
    0.0001   -0.3001    1.7205 H   0  0  0  0  0  0  0  0  0  0  0  0
   -0.8879    1.1977    2.0039 H   0  0  0  0  0  0  0  0  0  0  0  0
    0.8874    1.1980    2.0040 H   0  0  0  0  0  0  0  0  0  0  0  0
   -0.0001    2.8452   -1.2720 H   0  0  0  0  0  0  0  0  0  0  0  0
    0.8904    3.0778    0.2405 H   0  0  0  0  0  0  0  0  0  0  0  0
   -0.8905    3.0778    0.2405 H   0  0  0  0  0  0  0  0  0  0  0  0
   -1.0973   -1.5413    0.2473 H   0  0  0  0  0  0  0  0  0  0  0  0
   -1.7521   -1.6085   -1.3655 H   0  0  0  0  0  0  0  0  0  0  0  0
   -2.9327   -0.5355    0.0260 C   0  0  0  0  0  0  0  0  0  0  0  0
   -3.6618   -1.6198    0.3669 O   0  0  0  0  0  0  0  0  0  0  0  0
    1.0973   -1.5412    0.2475 H   0  0  0  0  0  0  0  0  0  0  0  0
    2.9327   -0.5354    0.0260 C   0  0  0  0  0  0  0  0  0  0  0  0
    1.7521   -1.6085   -1.3653 H   0  0  0  0  0  0  0  0  0  0  0  0
    3.6621   -1.6198    0.3663 O   0  0  0  0  0  0  0  0  0  0  0  0
    4.5090   -1.2975    0.7050 H   0  0  0  0  0  0  0  0  0  0  0  0
   -4.5088   -1.2976    0.7054 H   0  0  0  0  0  0  0  0  0  0  0  0
    3.3522    0.5895    0.1593 O   0  0  0  0  0  0  0  0  0  0  0  0
   -3.3524    0.5894    0.1587 O   0  0  0  0  0  0  0  0  0  0  0  0
  1  6  1  6  0  0  0
  1  7  1  0  0  0  0
  1  3  1  0  0  0  0
  2  5  1  6  0  0  0
  2  1  1  0  0  0  0
  2  4  1  0  0  0  0
  2  3  1  0  0  0  0
  3  8  1  0  0  0  0
  4 18  1  0  0  0  0
  4 16  1  0  0  0  0
  7 21  1  0  0  0  0
  7 20  1  0  0  0  0
  8 10  1  0  0  0  0
  8 11  1  0  0  0  0
  8 12  1  0  0  0  0
  9  3  1  0  0  0  0
  9 14  1  0  0  0  0
  9 15  1  0  0  0  0
 13  9  1  0  0  0  0
 17  4  1  0  0  0  0
 18 27  2  0  0  0  0
 18 19  1  0  0  0  0
 19 25  1  0  0  0  0
 21 26  2  0  0  0  0
 21 23  1  0  0  0  0
 22  7  1  0  0  0  0
 23 24  1  0  0  0  0
M  END
$$$$
