1ca_2sa_m062x.log
 OpenBabel01212108593D
Gaussian kemi/andersx/programs/g09/g09 # opt freq 6-31++g(d,p) geom=connectivity
 41 39  0  0  1  0  0  0  0  0999 V2000
   -3.8470   -1.3329    0.1269 S   0  0  0  0  0  0  0  0  0  0  0  0
   -2.6086   -1.3807   -0.6489 O   0  0  0  0  0  0  0  0  0  0  0  0
   -4.6659   -2.4942    0.2793 O   0  0  0  0  0  0  0  0  0  0  0  0
   -3.4708   -0.8078    1.5779 O   0  0  0  0  0  0  0  0  0  0  0  0
   -2.7024   -0.1984    1.5217 H   0  0  0  0  0  0  0  0  0  0  0  0
   -4.7514   -0.1872   -0.4642 O   0  0  0  0  0  0  0  0  0  0  0  0
   -4.2352    0.6497   -0.5646 H   0  0  0  0  0  0  0  0  0  0  0  0
   -1.6606    1.8015   -0.3408 S   0  0  0  0  0  0  0  0  0  0  0  0
   -3.0952    2.0076   -0.3018 O   0  0  0  0  0  0  0  0  0  0  0  0
   -0.7889    2.9586   -0.1641 O   0  0  0  0  0  0  0  0  0  0  0  0
   -1.3064    0.7729    0.8058 O   0  0  0  0  0  0  0  0  0  0  0  0
   -0.3080    0.8765    1.1362 H   0  0  0  0  0  0  0  0  0  0  0  0
   -1.3262    1.0558   -1.6532 O   0  0  0  0  0  0  0  0  0  0  0  0
   -0.5011    0.4279   -1.5492 H   0  0  0  0  0  0  0  0  0  0  0  0
    3.3565   -0.8771   -0.7261 C   0  0  1  0  0  0  0  0  0  0  0  0
    3.9097    0.4112   -0.1481 C   0  0  2  0  0  0  0  0  0  0  0  0
    4.7731   -0.8280   -0.2110 C   0  0  0  0  0  0  0  0  0  0  0  0
    3.4146    0.9997    1.1667 C   0  0  0  0  0  0  0  0  0  0  0  0
    4.1324    1.1761   -0.8878 H   0  0  0  0  0  0  0  0  0  0  0  0
    3.2581   -0.8691   -1.8092 H   0  0  0  0  0  0  0  0  0  0  0  0
    2.2677   -1.6758   -0.0495 C   0  0  0  0  0  0  0  0  0  0  0  0
    5.1541   -1.5715    1.0539 C   0  0  0  0  0  0  0  0  0  0  0  0
    5.8783   -0.8262   -1.2489 C   0  0  0  0  0  0  0  0  0  0  0  0
    4.3457   -1.6402    1.7844 H   0  0  0  0  0  0  0  0  0  0  0  0
    6.0053   -1.0831    1.5406 H   0  0  0  0  0  0  0  0  0  0  0  0
    5.4548   -2.5948    0.8051 H   0  0  0  0  0  0  0  0  0  0  0  0
    5.5797   -0.2757   -2.1459 H   0  0  0  0  0  0  0  0  0  0  0  0
    6.1292   -1.8499   -1.5468 H   0  0  0  0  0  0  0  0  0  0  0  0
    6.7839   -0.3577   -0.8486 H   0  0  0  0  0  0  0  0  0  0  0  0
    4.0432    1.8510    1.4431 H   0  0  0  0  0  0  0  0  0  0  0  0
    3.4245    0.2766    1.9826 H   0  0  0  0  0  0  0  0  0  0  0  0
    1.9984    1.4674    0.9948 C   0  0  0  0  0  0  0  0  0  0  0  0
    1.8613    2.5334    0.2539 O   0  0  0  0  0  0  0  0  0  0  0  0
    2.3605   -2.7461   -0.2706 H   0  0  0  0  0  0  0  0  0  0  0  0
    0.8871   -1.2478   -0.4782 C   0  0  0  0  0  0  0  0  0  0  0  0
    2.2812   -1.5924    1.0424 H   0  0  0  0  0  0  0  0  0  0  0  0
   -0.0709   -1.9530    0.0627 O   0  0  0  0  0  0  0  0  0  0  0  0
   -0.9807   -1.6849   -0.2289 H   0  0  0  0  0  0  0  0  0  0  0  0
    0.9098    2.7668    0.1013 H   0  0  0  0  0  0  0  0  0  0  0  0
    0.7074   -0.3129   -1.2613 O   0  0  0  0  0  0  0  0  0  0  0  0
    1.0537    0.8397    1.4886 O   0  0  0  0  0  0  0  0  0  0  0  0
  1  3  2  0  0  0  0
  1  4  1  0  0  0  0
  2  1  2  0  0  0  0
  5  4  1  0  0  0  0
  6  1  1  0  0  0  0
  7  6  1  0  0  0  0
  8  9  2  0  0  0  0
  8 10  2  0  0  0  0
  8 11  1  0  0  0  0
 11 12  1  0  0  0  0
 13 14  1  0  0  0  0
 13  8  1  0  0  0  0
 15 20  1  6  0  0  0
 15 17  1  0  0  0  0
 15 16  1  0  0  0  0
 15 21  1  0  0  0  0
 16 19  1  6  0  0  0
 16 18  1  0  0  0  0
 17 16  1  0  0  0  0
 17 22  1  0  0  0  0
 18 30  1  0  0  0  0
 18 31  1  0  0  0  0
 21 36  1  0  0  0  0
 22 25  1  0  0  0  0
 22 24  1  0  0  0  0
 23 29  1  0  0  0  0
 23 17  1  0  0  0  0
 26 22  1  0  0  0  0
 27 23  1  0  0  0  0
 28 23  1  0  0  0  0
 32 18  1  0  0  0  0
 32 41  2  0  0  0  0
 33 32  1  0  0  0  0
 34 21  1  0  0  0  0
 35 21  1  0  0  0  0
 35 37  1  0  0  0  0
 38 37  1  0  0  0  0
 39 33  1  0  0  0  0
 40 35  2  0  0  0  0
M  END
$$$$
