1pa_2sa_m062x.log
 OpenBabel01212108593D
Gaussian kemi/andersx/programs/g09/g09 # opt freq m062x/6-31++g(d,p) geom=connec
 41 39  0  0  1  0  0  0  0  0999 V2000
   -4.9710    1.4689    0.1473 S   0  0  0  0  0  0  0  0  0  0  0  0
   -4.5483    0.5017    1.1581 O   0  0  0  0  0  0  0  0  0  0  0  0
   -5.8390    2.5493    0.4886 O   0  0  0  0  0  0  0  0  0  0  0  0
   -3.6596    2.0799   -0.5009 O   0  0  0  0  0  0  0  0  0  0  0  0
   -2.9218    1.4313   -0.4660 H   0  0  0  0  0  0  0  0  0  0  0  0
   -5.6425    0.6798   -1.0447 O   0  0  0  0  0  0  0  0  0  0  0  0
   -5.1052   -0.1156   -1.2607 H   0  0  0  0  0  0  0  0  0  0  0  0
   -2.5531   -1.4305   -0.4098 S   0  0  0  0  0  0  0  0  0  0  0  0
   -3.6935   -1.2660   -1.2894 O   0  0  0  0  0  0  0  0  0  0  0  0
   -1.5757   -2.4626   -0.7021 O   0  0  0  0  0  0  0  0  0  0  0  0
   -1.8342   -0.0451   -0.3281 O   0  0  0  0  0  0  0  0  0  0  0  0
   -0.8287   -0.1364    0.0714 H   0  0  0  0  0  0  0  0  0  0  0  0
   -3.0371   -1.7006    1.0624 O   0  0  0  0  0  0  0  0  0  0  0  0
   -3.6945   -0.9965    1.3001 H   0  0  0  0  0  0  0  0  0  0  0  0
    3.7074   -0.7153    0.0246 C   0  0  0  0  0  0  0  0  0  0  0  0
    2.6195   -0.9336    1.1487 C   0  0  1  0  0  0  0  0  0  0  0  0
    3.0158    0.4147    1.7637 C   0  0  0  0  0  0  0  0  0  0  0  0
    4.3443    0.3449    0.9807 C   0  0  2  0  0  0  0  0  0  0  0  0
    2.8976   -1.7940    1.7636 H   0  0  0  0  0  0  0  0  0  0  0  0
    3.0656    0.4692    2.8527 H   0  0  0  0  0  0  0  0  0  0  0  0
    2.3654    1.2138    1.3943 H   0  0  0  0  0  0  0  0  0  0  0  0
    5.1207   -0.1474    1.5777 H   0  0  0  0  0  0  0  0  0  0  0  0
    3.1226   -0.1020   -1.2447 C   0  0  0  0  0  0  0  0  0  0  0  0
    3.9331    0.2190   -1.9076 H   0  0  0  0  0  0  0  0  0  0  0  0
    2.5282   -0.8449   -1.7887 H   0  0  0  0  0  0  0  0  0  0  0  0
    2.4793    0.7606   -1.0402 H   0  0  0  0  0  0  0  0  0  0  0  0
    4.5328   -1.9496   -0.3001 C   0  0  0  0  0  0  0  0  0  0  0  0
    3.9004   -2.7170   -0.7607 H   0  0  0  0  0  0  0  0  0  0  0  0
    5.3453   -1.6951   -0.9854 H   0  0  0  0  0  0  0  0  0  0  0  0
    4.9761   -2.3715    0.6077 H   0  0  0  0  0  0  0  0  0  0  0  0
    1.2286   -1.1248    0.6550 C   0  0  0  0  0  0  0  0  0  0  0  0
    0.9653   -2.3465    0.2649 O   0  0  0  0  0  0  0  0  0  0  0  0
    0.4238   -0.1864    0.5739 O   0  0  0  0  0  0  0  0  0  0  0  0
    0.0503   -2.4416   -0.0960 H   0  0  0  0  0  0  0  0  0  0  0  0
    4.8810    1.6537    0.4312 C   0  0  0  0  0  0  0  0  0  0  0  0
    4.1305    2.1737   -0.1771 H   0  0  0  0  0  0  0  0  0  0  0  0
    5.1301    2.3423    1.2478 H   0  0  0  0  0  0  0  0  0  0  0  0
    6.1115    1.4813   -0.4207 C   0  0  0  0  0  0  0  0  0  0  0  0
    6.6143    0.4258   -0.7240 O   0  0  0  0  0  0  0  0  0  0  0  0
    6.6069    2.6631   -0.8322 O   0  0  0  0  0  0  0  0  0  0  0  0
    7.3886    2.4807   -1.3769 H   0  0  0  0  0  0  0  0  0  0  0  0
  1  3  2  0  0  0  0
  1  2  2  0  0  0  0
  4  5  1  0  0  0  0
  4  1  1  0  0  0  0
  6  1  1  0  0  0  0
  7  6  1  0  0  0  0
  8 11  1  0  0  0  0
  8 13  1  0  0  0  0
  9  8  2  0  0  0  0
 10  8  2  0  0  0  0
 11 12  1  0  0  0  0
 13 14  1  0  0  0  0
 15 18  1  0  0  0  0
 15 16  1  0  0  0  0
 16 19  1  1  0  0  0
 16 17  1  0  0  0  0
 17 20  1  0  0  0  0
 18 22  1  1  0  0  0
 18 17  1  0  0  0  0
 21 17  1  0  0  0  0
 23 26  1  0  0  0  0
 23 15  1  0  0  0  0
 24 23  1  0  0  0  0
 25 23  1  0  0  0  0
 27 15  1  0  0  0  0
 27 30  1  0  0  0  0
 28 27  1  0  0  0  0
 29 27  1  0  0  0  0
 31 16  1  0  0  0  0
 32 31  1  0  0  0  0
 33 31  2  0  0  0  0
 34 32  1  0  0  0  0
 35 18  1  0  0  0  0
 35 37  1  0  0  0  0
 36 35  1  0  0  0  0
 38 35  1  0  0  0  0
 39 38  2  0  0  0  0
 40 38  1  0  0  0  0
 41 40  1  0  0  0  0
M  END
$$$$
