1pa_1sa_pw91.log
 OpenBabel01212108593D
Gaussian kemi/andersx/programs/g09/g09 # opt freq 6-31++g(d,p) geom=connectivity
 34 33  0  0  1  0  0  0  0  0999 V2000
    4.3825   -0.2847   -0.3519 S   0  0  0  0  0  0  0  0  0  0  0  0
    5.5215   -0.7582   -1.1343 O   0  0  0  0  0  0  0  0  0  0  0  0
    3.7044    0.9927   -0.6848 O   0  0  0  0  0  0  0  0  0  0  0  0
    3.3145   -1.4490   -0.2406 O   0  0  0  0  0  0  0  0  0  0  0  0
    2.3810   -1.0658    0.1135 H   0  0  0  0  0  0  0  0  0  0  0  0
    4.8618   -0.0397    1.2141 O   0  0  0  0  0  0  0  0  0  0  0  0
    5.4769   -0.7669    1.4507 H   0  0  0  0  0  0  0  0  0  0  0  0
   -1.9285    0.7852   -0.1383 C   0  0  0  0  0  0  0  0  0  0  0  0
   -0.8101    0.7721    1.0043 C   0  0  1  0  0  0  0  0  0  0  0  0
   -1.6030   -0.3335    1.7299 C   0  0  0  0  0  0  0  0  0  0  0  0
   -2.8595    0.0628    0.9113 C   0  0  2  0  0  0  0  0  0  0  0  0
   -0.8395    1.7373    1.5325 H   0  0  0  0  0  0  0  0  0  0  0  0
   -1.6635   -0.2684    2.8262 H   0  0  0  0  0  0  0  0  0  0  0  0
   -1.2208   -1.3281    1.4529 H   0  0  0  0  0  0  0  0  0  0  0  0
   -3.4374    0.8353    1.4456 H   0  0  0  0  0  0  0  0  0  0  0  0
   -1.5618   -0.0938   -1.3391 C   0  0  0  0  0  0  0  0  0  0  0  0
   -2.4350   -0.2186   -1.9995 H   0  0  0  0  0  0  0  0  0  0  0  0
   -0.7667    0.3807   -1.9368 H   0  0  0  0  0  0  0  0  0  0  0  0
   -1.2068   -1.0942   -1.0463 H   0  0  0  0  0  0  0  0  0  0  0  0
   -2.3587    2.1775   -0.5940 C   0  0  0  0  0  0  0  0  0  0  0  0
   -1.5458    2.6757   -1.1474 H   0  0  0  0  0  0  0  0  0  0  0  0
   -3.2417    2.1115   -1.2481 H   0  0  0  0  0  0  0  0  0  0  0  0
   -2.6281    2.8131    0.2645 H   0  0  0  0  0  0  0  0  0  0  0  0
    0.5983    0.5043    0.5786 C   0  0  0  0  0  0  0  0  0  0  0  0
    1.2449    1.5877    0.1642 O   0  0  0  0  0  0  0  0  0  0  0  0
    1.0894   -0.6476    0.5804 O   0  0  0  0  0  0  0  0  0  0  0  0
    2.1762    1.3639   -0.1569 H   0  0  0  0  0  0  0  0  0  0  0  0
   -3.8025   -1.0598    0.4945 C   0  0  0  0  0  0  0  0  0  0  0  0
   -3.2907   -1.8280   -0.1100 H   0  0  0  0  0  0  0  0  0  0  0  0
   -4.1643   -1.5963    1.3911 H   0  0  0  0  0  0  0  0  0  0  0  0
   -5.0247   -0.5960   -0.2691 C   0  0  0  0  0  0  0  0  0  0  0  0
   -5.3410    0.5638   -0.4937 O   0  0  0  0  0  0  0  0  0  0  0  0
   -5.7780   -1.6545   -0.6937 O   0  0  0  0  0  0  0  0  0  0  0  0
   -6.5492   -1.2701   -1.1628 H   0  0  0  0  0  0  0  0  0  0  0  0
  1  4  1  0  0  0  0
  1  6  1  0  0  0  0
  2  1  2  0  0  0  0
  3  1  2  0  0  0  0
  4  5  1  0  0  0  0
  6  7  1  0  0  0  0
  8 11  1  0  0  0  0
  8  9  1  0  0  0  0
  9 12  1  1  0  0  0
  9 10  1  0  0  0  0
 10 13  1  0  0  0  0
 11 15  1  1  0  0  0
 11 10  1  0  0  0  0
 14 10  1  0  0  0  0
 16 19  1  0  0  0  0
 16  8  1  0  0  0  0
 17 16  1  0  0  0  0
 18 16  1  0  0  0  0
 20  8  1  0  0  0  0
 20 23  1  0  0  0  0
 21 20  1  0  0  0  0
 22 20  1  0  0  0  0
 24 26  2  0  0  0  0
 24  9  1  0  0  0  0
 25 24  1  0  0  0  0
 27 25  1  0  0  0  0
 28 11  1  0  0  0  0
 28 30  1  0  0  0  0
 29 28  1  0  0  0  0
 31 28  1  0  0  0  0
 32 31  2  0  0  0  0
 33 31  1  0  0  0  0
 34 33  1  0  0  0  0
M  END
$$$$
