2ca_2sa_m062x.log
 OpenBabel01212108593D
Gaussian kemi/andersx/programs/g09/g09 # opt freq 6-31++g(d,p) geom=connectivity
 68 66  0  0  1  0  0  0  0  0999 V2000
   -0.4726   -1.9250   -0.2572 S   0  0  0  0  0  0  0  0  0  0  0  0
    0.0305   -1.4497    1.0273 O   0  0  0  0  0  0  0  0  0  0  0  0
   -1.3912   -3.0599   -0.2333 O   0  0  0  0  0  0  0  0  0  0  0  0
   -1.1894   -0.7399   -0.9865 O   0  0  0  0  0  0  0  0  0  0  0  0
   -2.1902   -0.9419   -1.0894 H   0  0  0  0  0  0  0  0  0  0  0  0
    0.7173   -2.2642   -1.1784 O   0  0  0  0  0  0  0  0  0  0  0  0
    1.6219   -1.9945   -0.7383 H   0  0  0  0  0  0  0  0  0  0  0  0
   -5.6785    1.0317    0.0152 C   0  0  1  0  0  0  0  0  0  0  0  0
   -6.2671   -0.1554   -0.7162 C   0  0  2  0  0  0  0  0  0  0  0  0
   -7.1512    0.7334    0.1309 C   0  0  0  0  0  0  0  0  0  0  0  0
   -5.9070   -1.5686   -0.3199 C   0  0  0  0  0  0  0  0  0  0  0  0
   -6.3622   -0.0178   -1.7901 H   0  0  0  0  0  0  0  0  0  0  0  0
   -5.4084    1.8767   -0.6126 H   0  0  0  0  0  0  0  0  0  0  0  0
   -4.7218    0.8344    1.1697 C   0  0  0  0  0  0  0  0  0  0  0  0
   -7.7281    0.2369    1.4419 C   0  0  0  0  0  0  0  0  0  0  0  0
   -8.0965    1.6516   -0.6176 C   0  0  0  0  0  0  0  0  0  0  0  0
   -7.0303   -0.3637    2.0296 H   0  0  0  0  0  0  0  0  0  0  0  0
   -8.6240   -0.3680    1.2621 H   0  0  0  0  0  0  0  0  0  0  0  0
   -8.0222    1.0902    2.0628 H   0  0  0  0  0  0  0  0  0  0  0  0
   -7.6521    1.9985   -1.5552 H   0  0  0  0  0  0  0  0  0  0  0  0
   -8.3423    2.5319   -0.0137 H   0  0  0  0  0  0  0  0  0  0  0  0
   -9.0314    1.1324   -0.8567 H   0  0  0  0  0  0  0  0  0  0  0  0
   -6.4298   -2.2947   -0.9541 H   0  0  0  0  0  0  0  0  0  0  0  0
   -6.1916   -1.8231    0.7049 H   0  0  0  0  0  0  0  0  0  0  0  0
   -4.4306   -1.8478   -0.4591 C   0  0  0  0  0  0  0  0  0  0  0  0
   -4.0352   -2.9462    0.1371 O   0  0  0  0  0  0  0  0  0  0  0  0
   -4.8903    1.5950    1.9452 H   0  0  0  0  0  0  0  0  0  0  0  0
   -3.2771    0.9837    0.7601 C   0  0  0  0  0  0  0  0  0  0  0  0
   -4.8282   -0.1328    1.6682 H   0  0  0  0  0  0  0  0  0  0  0  0
   -2.4526    0.2718    1.4932 O   0  0  0  0  0  0  0  0  0  0  0  0
   -1.5097    0.4870    1.2875 H   0  0  0  0  0  0  0  0  0  0  0  0
   -3.0554   -3.0648    0.0265 H   0  0  0  0  0  0  0  0  0  0  0  0
   -2.9277    1.7341   -0.1467 O   0  0  0  0  0  0  0  0  0  0  0  0
   -3.6813   -1.0920   -1.0737 O   0  0  0  0  0  0  0  0  0  0  0  0
    0.4725    1.9251   -0.2573 S   0  0  0  0  0  0  0  0  0  0  0  0
    1.3911    3.0600   -0.2335 O   0  0  0  0  0  0  0  0  0  0  0  0
   -0.0305    1.4498    1.0273 O   0  0  0  0  0  0  0  0  0  0  0  0
    1.1894    0.7399   -0.9865 O   0  0  0  0  0  0  0  0  0  0  0  0
    2.1901    0.9419   -1.0895 H   0  0  0  0  0  0  0  0  0  0  0  0
   -0.7174    2.2642   -1.1784 O   0  0  0  0  0  0  0  0  0  0  0  0
   -1.6219    1.9945   -0.7383 H   0  0  0  0  0  0  0  0  0  0  0  0
    5.6786   -1.0316    0.0151 C   0  0  1  0  0  0  0  0  0  0  0  0
    6.2671    0.1555   -0.7161 C   0  0  2  0  0  0  0  0  0  0  0  0
    7.1513   -0.7333    0.1309 C   0  0  0  0  0  0  0  0  0  0  0  0
    5.9069    1.5686   -0.3196 C   0  0  0  0  0  0  0  0  0  0  0  0
    6.3623    0.0181   -1.7901 H   0  0  0  0  0  0  0  0  0  0  0  0
    5.4085   -1.8766   -0.6128 H   0  0  0  0  0  0  0  0  0  0  0  0
    4.7218   -0.8346    1.1695 C   0  0  0  0  0  0  0  0  0  0  0  0
    7.7281   -0.2371    1.4419 C   0  0  0  0  0  0  0  0  0  0  0  0
    8.0966   -1.6514   -0.6178 C   0  0  0  0  0  0  0  0  0  0  0  0
    7.0303    0.3635    2.0297 H   0  0  0  0  0  0  0  0  0  0  0  0
    8.6240    0.3679    1.2622 H   0  0  0  0  0  0  0  0  0  0  0  0
    8.0222   -1.0903    2.0628 H   0  0  0  0  0  0  0  0  0  0  0  0
    9.0315   -1.1320   -0.8568 H   0  0  0  0  0  0  0  0  0  0  0  0
    7.6522   -1.9983   -1.5553 H   0  0  0  0  0  0  0  0  0  0  0  0
    8.3425   -2.5318   -0.0139 H   0  0  0  0  0  0  0  0  0  0  0  0
    6.4298    2.2949   -0.9535 H   0  0  0  0  0  0  0  0  0  0  0  0
    6.1913    1.8229    0.7053 H   0  0  0  0  0  0  0  0  0  0  0  0
    4.4305    1.8478   -0.4591 C   0  0  0  0  0  0  0  0  0  0  0  0
    4.0351    2.9461    0.1372 O   0  0  0  0  0  0  0  0  0  0  0  0
    4.8903   -1.5953    1.9449 H   0  0  0  0  0  0  0  0  0  0  0  0
    3.2772   -0.9838    0.7599 C   0  0  0  0  0  0  0  0  0  0  0  0
    4.8282    0.1326    1.6683 H   0  0  0  0  0  0  0  0  0  0  0  0
    2.4527   -0.2721    1.4932 O   0  0  0  0  0  0  0  0  0  0  0  0
    1.5097   -0.4873    1.2876 H   0  0  0  0  0  0  0  0  0  0  0  0
    3.0553    3.0647    0.0268 H   0  0  0  0  0  0  0  0  0  0  0  0
    2.9278   -1.7342   -0.1469 O   0  0  0  0  0  0  0  0  0  0  0  0
    3.6813    1.0921   -1.0738 O   0  0  0  0  0  0  0  0  0  0  0  0
  1  3  2  0  0  0  0
  1  2  2  0  0  0  0
  4  1  1  0  0  0  0
  5  4  1  0  0  0  0
  6  7  1  0  0  0  0
  6  1  1  0  0  0  0
  8 13  1  6  0  0  0
  8 10  1  0  0  0  0
  8 14  1  0  0  0  0
  9 12  1  6  0  0  0
  9 11  1  0  0  0  0
  9  8  1  0  0  0  0
  9 10  1  0  0  0  0
 10 15  1  0  0  0  0
 11 24  1  0  0  0  0
 14 29  1  0  0  0  0
 14 27  1  0  0  0  0
 15 17  1  0  0  0  0
 15 19  1  0  0  0  0
 16 21  1  0  0  0  0
 16 10  1  0  0  0  0
 18 15  1  0  0  0  0
 20 16  1  0  0  0  0
 22 16  1  0  0  0  0
 23 11  1  0  0  0  0
 25 11  1  0  0  0  0
 25 26  1  0  0  0  0
 28 14  1  0  0  0  0
 28 30  1  0  0  0  0
 31 30  1  0  0  0  0
 32 26  1  0  0  0  0
 33 28  2  0  0  0  0
 34 25  2  0  0  0  0
 35 36  2  0  0  0  0
 35 37  2  0  0  0  0
 38 35  1  0  0  0  0
 39 38  1  0  0  0  0
 40 41  1  0  0  0  0
 40 35  1  0  0  0  0
 42 47  1  6  0  0  0
 42 44  1  0  0  0  0
 42 48  1  0  0  0  0
 43 46  1  6  0  0  0
 43 45  1  0  0  0  0
 43 42  1  0  0  0  0
 43 44  1  0  0  0  0
 44 49  1  0  0  0  0
 45 58  1  0  0  0  0
 48 63  1  0  0  0  0
 48 61  1  0  0  0  0
 49 51  1  0  0  0  0
 49 53  1  0  0  0  0
 50 56  1  0  0  0  0
 50 44  1  0  0  0  0
 52 49  1  0  0  0  0
 54 50  1  0  0  0  0
 55 50  1  0  0  0  0
 57 45  1  0  0  0  0
 59 45  1  0  0  0  0
 59 60  1  0  0  0  0
 62 48  1  0  0  0  0
 62 64  1  0  0  0  0
 65 64  1  0  0  0  0
 66 60  1  0  0  0  0
 67 62  2  0  0  0  0
 68 59  2  0  0  0  0
M  END
$$$$
