2ca_1sa_wb97xd.log
 OpenBabel01212108593D
Gaussian kemi/andersx/programs/g09/g09 # opt freq 6-31++g(d,p) geom=connectivity
 61 60  0  0  1  0  0  0  0  0999 V2000
   -4.2053   -1.7142    0.1972 C   0  0  1  0  0  0  0  0  0  0  0  0
   -5.0732   -0.6069    0.7615 C   0  0  2  0  0  0  0  0  0  0  0  0
   -5.7093   -1.7908    0.0605 C   0  0  0  0  0  0  0  0  0  0  0  0
   -5.0992    0.7953    0.1788 C   0  0  0  0  0  0  0  0  0  0  0  0
   -5.1482   -0.6113    1.8456 H   0  0  0  0  0  0  0  0  0  0  0  0
   -3.7816   -2.3692    0.9550 H   0  0  0  0  0  0  0  0  0  0  0  0
   -3.2846   -1.5361   -0.9910 C   0  0  0  0  0  0  0  0  0  0  0  0
   -6.3549   -1.6271   -1.3025 C   0  0  0  0  0  0  0  0  0  0  0  0
   -6.4347   -2.7935    0.9381 C   0  0  0  0  0  0  0  0  0  0  0  0
   -5.7886   -0.9841   -1.9800 H   0  0  0  0  0  0  0  0  0  0  0  0
   -7.3615   -1.2055   -1.2033 H   0  0  0  0  0  0  0  0  0  0  0  0
   -6.4494   -2.6038   -1.7892 H   0  0  0  0  0  0  0  0  0  0  0  0
   -5.9529   -2.8929    1.9156 H   0  0  0  0  0  0  0  0  0  0  0  0
   -6.4476   -3.7830    0.4672 H   0  0  0  0  0  0  0  0  0  0  0  0
   -7.4734   -2.4853    1.1039 H   0  0  0  0  0  0  0  0  0  0  0  0
   -5.8405    1.3935    0.7205 H   0  0  0  0  0  0  0  0  0  0  0  0
   -5.3740    0.8160   -0.8760 H   0  0  0  0  0  0  0  0  0  0  0  0
   -3.7674    1.4859    0.2984 C   0  0  0  0  0  0  0  0  0  0  0  0
   -3.2787    1.5083    1.5143 O   0  0  0  0  0  0  0  0  0  0  0  0
   -3.3340   -2.3982   -1.6639 H   0  0  0  0  0  0  0  0  0  0  0  0
   -1.8397   -1.3534   -0.5828 C   0  0  0  0  0  0  0  0  0  0  0  0
   -3.5428   -0.6629   -1.6019 H   0  0  0  0  0  0  0  0  0  0  0  0
   -0.9905   -1.6464   -1.5423 O   0  0  0  0  0  0  0  0  0  0  0  0
   -0.0536   -1.5708   -1.2093 H   0  0  0  0  0  0  0  0  0  0  0  0
   -2.3344    1.7946    1.5077 H   0  0  0  0  0  0  0  0  0  0  0  0
   -1.5042   -0.9747    0.5346 O   0  0  0  0  0  0  0  0  0  0  0  0
   -3.2008    1.9699   -0.6830 O   0  0  0  0  0  0  0  0  0  0  0  0
    4.2670   -1.7191   -0.0718 C   0  0  1  0  0  0  0  0  0  0  0  0
    5.1445   -0.6698   -0.7273 C   0  0  2  0  0  0  0  0  0  0  0  0
    5.7596   -1.7355    0.1609 C   0  0  0  0  0  0  0  0  0  0  0  0
    5.0973    0.7940   -0.3334 C   0  0  0  0  0  0  0  0  0  0  0  0
    5.2877   -0.8185   -1.7940 H   0  0  0  0  0  0  0  0  0  0  0  0
    3.8919   -2.4760   -0.7555 H   0  0  0  0  0  0  0  0  0  0  0  0
    3.2728   -1.3883    1.0179 C   0  0  0  0  0  0  0  0  0  0  0  0
    6.3214   -1.3764    1.5233 C   0  0  0  0  0  0  0  0  0  0  0  0
    6.5532   -2.8255   -0.5350 C   0  0  0  0  0  0  0  0  0  0  0  0
    5.7049   -0.6658    2.0790 H   0  0  0  0  0  0  0  0  0  0  0  0
    7.3240   -0.9452    1.4251 H   0  0  0  0  0  0  0  0  0  0  0  0
    6.4054   -2.2781    2.1395 H   0  0  0  0  0  0  0  0  0  0  0  0
    6.1334   -3.0573   -1.5184 H   0  0  0  0  0  0  0  0  0  0  0  0
    6.5493   -3.7475    0.0575 H   0  0  0  0  0  0  0  0  0  0  0  0
    7.5960   -2.5191   -0.6765 H   0  0  0  0  0  0  0  0  0  0  0  0
    5.4037    0.9779    0.6977 H   0  0  0  0  0  0  0  0  0  0  0  0
    5.7914    1.3649   -0.9620 H   0  0  0  0  0  0  0  0  0  0  0  0
    3.7383    1.4251   -0.4928 C   0  0  0  0  0  0  0  0  0  0  0  0
    3.0407    0.9596   -1.5023 O   0  0  0  0  0  0  0  0  0  0  0  0
    3.2826   -2.1623    1.7965 H   0  0  0  0  0  0  0  0  0  0  0  0
    1.8437   -1.3082    0.5236 C   0  0  0  0  0  0  0  0  0  0  0  0
    3.4884   -0.4515    1.5412 H   0  0  0  0  0  0  0  0  0  0  0  0
    1.0238   -0.8157    1.4251 O   0  0  0  0  0  0  0  0  0  0  0  0
    0.0890   -0.8071    1.0809 H   0  0  0  0  0  0  0  0  0  0  0  0
    2.0945    1.2256   -1.4273 H   0  0  0  0  0  0  0  0  0  0  0  0
    1.4922   -1.6902   -0.5867 O   0  0  0  0  0  0  0  0  0  0  0  0
    3.3344    2.2968    0.2777 O   0  0  0  0  0  0  0  0  0  0  0  0
   -0.0236    2.4864    0.0171 S   0  0  0  0  0  0  0  0  0  0  0  0
   -1.0227    3.3252   -0.8401 O   0  0  0  0  0  0  0  0  0  0  0  0
    1.1042    3.5399    0.2007 O   0  0  0  0  0  0  0  0  0  0  0  0
   -1.9195    2.8493   -0.8041 H   0  0  0  0  0  0  0  0  0  0  0  0
    2.0098    3.0673    0.2315 H   0  0  0  0  0  0  0  0  0  0  0  0
    0.4932    1.3564   -0.7547 O   0  0  0  0  0  0  0  0  0  0  0  0
   -0.6477    2.1572    1.2920 O   0  0  0  0  0  0  0  0  0  0  0  0
  1  2  1  0  0  0  0
  1  6  1  1  0  0  0
  2  5  1  1  0  0  0
  3  1  1  0  0  0  0
  3  2  1  0  0  0  0
  3  9  1  0  0  0  0
  4 18  1  0  0  0  0
  4 16  1  0  0  0  0
  4  2  1  0  0  0  0
  7 21  1  0  0  0  0
  7  1  1  0  0  0  0
  8 11  1  0  0  0  0
  8  3  1  0  0  0  0
  9 15  1  0  0  0  0
  9 13  1  0  0  0  0
 10  8  1  0  0  0  0
 12  8  1  0  0  0  0
 14  9  1  0  0  0  0
 17  4  1  0  0  0  0
 18 19  1  0  0  0  0
 20  7  1  0  0  0  0
 21 26  2  0  0  0  0
 22  7  1  0  0  0  0
 23 24  1  0  0  0  0
 23 21  1  0  0  0  0
 25 19  1  0  0  0  0
 27 18  2  0  0  0  0
 28 33  1  6  0  0  0
 28 30  1  0  0  0  0
 28 34  1  0  0  0  0
 29 32  1  6  0  0  0
 29 31  1  0  0  0  0
 29 28  1  0  0  0  0
 29 30  1  0  0  0  0
 30 35  1  0  0  0  0
 31 43  1  0  0  0  0
 34 49  1  0  0  0  0
 34 47  1  0  0  0  0
 35 37  1  0  0  0  0
 35 39  1  0  0  0  0
 36 41  1  0  0  0  0
 36 30  1  0  0  0  0
 38 35  1  0  0  0  0
 40 36  1  0  0  0  0
 42 36  1  0  0  0  0
 44 31  1  0  0  0  0
 45 31  1  0  0  0  0
 45 54  2  0  0  0  0
 46 52  1  0  0  0  0
 46 45  1  0  0  0  0
 48 34  1  0  0  0  0
 48 50  1  0  0  0  0
 51 50  1  0  0  0  0
 53 48  2  0  0  0  0
 55 57  1  0  0  0  0
 55 61  2  0  0  0  0
 56 58  1  0  0  0  0
 56 55  1  0  0  0  0
 57 59  1  0  0  0  0
 60 55  2  0  0  0  0
M  END
$$$$
