2pa_1sa_m062x.log
 OpenBabel01212108593D
Gaussian kemi/andersx/programs/g09/g09 # opt freq m062x/6-31++g(d,p) geom=connec
 61 60  0  0  1  0  0  0  0  0999 V2000
   -2.9301   -2.3085    0.6965 C   0  0  0  0  0  0  0  0  0  0  0  0
   -2.3366   -2.7530   -0.6819 C   0  0  1  0  0  0  0  0  0  0  0  0
   -3.0980   -1.6001   -1.3579 C   0  0  0  0  0  0  0  0  0  0  0  0
   -4.0510   -1.6240   -0.1405 C   0  0  2  0  0  0  0  0  0  0  0  0
   -2.7391   -3.7357   -0.9541 H   0  0  0  0  0  0  0  0  0  0  0  0
   -3.5271   -1.7764   -2.3454 H   0  0  0  0  0  0  0  0  0  0  0  0
   -2.4809   -0.6976   -1.3971 H   0  0  0  0  0  0  0  0  0  0  0  0
   -4.8186   -2.3868   -0.3215 H   0  0  0  0  0  0  0  0  0  0  0  0
   -2.0033   -1.3265    1.4141 C   0  0  0  0  0  0  0  0  0  0  0  0
   -2.5296   -0.8183    2.2275 H   0  0  0  0  0  0  0  0  0  0  0  0
   -1.1535   -1.8688    1.8422 H   0  0  0  0  0  0  0  0  0  0  0  0
   -1.6068   -0.5558    0.7429 H   0  0  0  0  0  0  0  0  0  0  0  0
   -3.3696   -3.4162    1.6395 C   0  0  0  0  0  0  0  0  0  0  0  0
   -2.5008   -3.9706    2.0092 H   0  0  0  0  0  0  0  0  0  0  0  0
   -3.9000   -2.9994    2.5039 H   0  0  0  0  0  0  0  0  0  0  0  0
   -4.0380   -4.1227    1.1361 H   0  0  0  0  0  0  0  0  0  0  0  0
   -0.8435   -2.8163   -0.7700 C   0  0  0  0  0  0  0  0  0  0  0  0
   -0.3221   -3.7142    0.0406 O   0  0  0  0  0  0  0  0  0  0  0  0
   -0.1748   -2.0865   -1.4963 O   0  0  0  0  0  0  0  0  0  0  0  0
    0.6791   -3.6438    0.0443 H   0  0  0  0  0  0  0  0  0  0  0  0
   -4.7938   -0.3800    0.3749 C   0  0  0  0  0  0  0  0  0  0  0  0
   -5.7077   -0.2461   -0.2112 H   0  0  0  0  0  0  0  0  0  0  0  0
   -5.0660   -0.5261    1.4241 H   0  0  0  0  0  0  0  0  0  0  0  0
   -4.0139    0.9012    0.2766 C   0  0  0  0  0  0  0  0  0  0  0  0
   -3.4491    1.4134    1.2394 O   0  0  0  0  0  0  0  0  0  0  0  0
   -4.0053    1.4147   -0.9355 O   0  0  0  0  0  0  0  0  0  0  0  0
   -3.4914    2.2578   -0.9656 H   0  0  0  0  0  0  0  0  0  0  0  0
    3.8789    0.1757    0.9838 C   0  0  0  0  0  0  0  0  0  0  0  0
    3.9248    1.3401   -0.0863 C   0  0  1  0  0  0  0  0  0  0  0  0
    4.3171    0.3107   -1.1625 C   0  0  0  0  0  0  0  0  0  0  0  0
    4.6507   -0.7063   -0.0505 C   0  0  2  0  0  0  0  0  0  0  0  0
    4.7051    2.0640    0.1596 H   0  0  0  0  0  0  0  0  0  0  0  0
    5.1359    0.5959   -1.8266 H   0  0  0  0  0  0  0  0  0  0  0  0
    3.4474    0.0224   -1.7525 H   0  0  0  0  0  0  0  0  0  0  0  0
    5.7193   -0.6440    0.1885 H   0  0  0  0  0  0  0  0  0  0  0  0
    2.4649   -0.2967    1.3169 C   0  0  0  0  0  0  0  0  0  0  0  0
    2.5037   -1.2152    1.9110 H   0  0  0  0  0  0  0  0  0  0  0  0
    1.9477    0.4656    1.9121 H   0  0  0  0  0  0  0  0  0  0  0  0
    1.8566   -0.4844    0.4277 H   0  0  0  0  0  0  0  0  0  0  0  0
    4.6396    0.4822    2.2665 C   0  0  0  0  0  0  0  0  0  0  0  0
    4.1291    1.2615    2.8429 H   0  0  0  0  0  0  0  0  0  0  0  0
    4.7069   -0.4151    2.8924 H   0  0  0  0  0  0  0  0  0  0  0  0
    5.6567    0.8264    2.0531 H   0  0  0  0  0  0  0  0  0  0  0  0
    2.6256    2.0501   -0.2867 C   0  0  0  0  0  0  0  0  0  0  0  0
    2.5003    3.1695    0.3926 O   0  0  0  0  0  0  0  0  0  0  0  0
    1.7323    1.5778   -0.9901 O   0  0  0  0  0  0  0  0  0  0  0  0
    1.6217    3.5877    0.2211 H   0  0  0  0  0  0  0  0  0  0  0  0
    4.3445   -2.2004   -0.2261 C   0  0  0  0  0  0  0  0  0  0  0  0
    4.9523   -2.5722   -1.0608 H   0  0  0  0  0  0  0  0  0  0  0  0
    4.6293   -2.7571    0.6702 H   0  0  0  0  0  0  0  0  0  0  0  0
    2.9130   -2.5664   -0.5320 C   0  0  0  0  0  0  0  0  0  0  0  0
    2.2708   -3.3404    0.1724 O   0  0  0  0  0  0  0  0  0  0  0  0
    2.4235   -1.9996   -1.6121 O   0  0  0  0  0  0  0  0  0  0  0  0
    1.4243   -2.1189   -1.6493 H   0  0  0  0  0  0  0  0  0  0  0  0
   -1.1159    3.2202   -0.2318 S   0  0  0  0  0  0  0  0  0  0  0  0
   -1.3222    2.8129    1.2651 O   0  0  0  0  0  0  0  0  0  0  0  0
   -0.7407    1.8878   -0.9520 O   0  0  0  0  0  0  0  0  0  0  0  0
    0.2903    1.7671   -0.9847 H   0  0  0  0  0  0  0  0  0  0  0  0
   -2.1984    2.2947    1.3326 H   0  0  0  0  0  0  0  0  0  0  0  0
    0.0155    4.1335   -0.2615 O   0  0  0  0  0  0  0  0  0  0  0  0
   -2.3918    3.6429   -0.7890 O   0  0  0  0  0  0  0  0  0  0  0  0
  1  9  1  0  0  0  0
  1 13  1  0  0  0  0
  2  5  1  6  0  0  0
  2  1  1  0  0  0  0
  3  2  1  0  0  0  0
  3  4  1  0  0  0  0
  4  8  1  6  0  0  0
  4 21  1  0  0  0  0
  4  1  1  0  0  0  0
  6  3  1  0  0  0  0
  7  3  1  0  0  0  0
  9 11  1  0  0  0  0
  9 10  1  0  0  0  0
 12  9  1  0  0  0  0
 13 14  1  0  0  0  0
 13 15  1  0  0  0  0
 16 13  1  0  0  0  0
 17  2  1  0  0  0  0
 17 18  1  0  0  0  0
 18 20  1  0  0  0  0
 19 17  2  0  0  0  0
 21 23  1  0  0  0  0
 22 21  1  0  0  0  0
 24 21  1  0  0  0  0
 24 25  2  0  0  0  0
 26 24  1  0  0  0  0
 27 26  1  0  0  0  0
 28 36  1  0  0  0  0
 28 40  1  0  0  0  0
 29 32  1  1  0  0  0
 29 28  1  0  0  0  0
 30 29  1  0  0  0  0
 30 31  1  0  0  0  0
 31 35  1  1  0  0  0
 31 28  1  0  0  0  0
 33 30  1  0  0  0  0
 34 30  1  0  0  0  0
 36 37  1  0  0  0  0
 36 38  1  0  0  0  0
 39 36  1  0  0  0  0
 40 41  1  0  0  0  0
 40 42  1  0  0  0  0
 43 40  1  0  0  0  0
 44 29  1  0  0  0  0
 44 45  1  0  0  0  0
 46 44  2  0  0  0  0
 47 45  1  0  0  0  0
 48 31  1  0  0  0  0
 48 50  1  0  0  0  0
 49 48  1  0  0  0  0
 51 48  1  0  0  0  0
 51 52  2  0  0  0  0
 53 51  1  0  0  0  0
 54 53  1  0  0  0  0
 55 56  1  0  0  0  0
 56 59  1  0  0  0  0
 57 55  1  0  0  0  0
 58 57  1  0  0  0  0
 60 55  2  0  0  0  0
 61 55  2  0  0  0  0
M  END
$$$$
