2pa_2sa_pw91.log
 OpenBabel01212108593D
Gaussian kemi/andersx/programs/g09/g09 # opt freq 6-31++g(d,p) geom=connectivity
 68 66  0  0  1  0  0  0  0  0999 V2000
    4.4829    1.5584    0.6641 C   0  0  0  0  0  0  0  0  0  0  0  0
    3.9754    2.3091   -0.6510 C   0  0  1  0  0  0  0  0  0  0  0  0
    4.4966    1.1253   -1.4977 C   0  0  0  0  0  0  0  0  0  0  0  0
    5.4053    0.7277   -0.3062 C   0  0  2  0  0  0  0  0  0  0  0  0
    4.5712    3.2250   -0.7840 H   0  0  0  0  0  0  0  0  0  0  0  0
    4.9884    1.3710   -2.4501 H   0  0  0  0  0  0  0  0  0  0  0  0
    3.7085    0.3846   -1.6848 H   0  0  0  0  0  0  0  0  0  0  0  0
    6.3611    1.2747   -0.3896 H   0  0  0  0  0  0  0  0  0  0  0  0
    3.3761    0.7457    1.3469 C   0  0  0  0  0  0  0  0  0  0  0  0
    3.8023    0.0795    2.1126 H   0  0  0  0  0  0  0  0  0  0  0  0
    2.6696    1.4197    1.8587 H   0  0  0  0  0  0  0  0  0  0  0  0
    2.7943    0.1315    0.6438 H   0  0  0  0  0  0  0  0  0  0  0  0
    5.2007    2.4457    1.6798 C   0  0  0  0  0  0  0  0  0  0  0  0
    4.4968    3.1500    2.1517 H   0  0  0  0  0  0  0  0  0  0  0  0
    5.6495    1.8343    2.4806 H   0  0  0  0  0  0  0  0  0  0  0  0
    6.0045    3.0332    1.2077 H   0  0  0  0  0  0  0  0  0  0  0  0
    2.5317    2.7027   -0.6772 C   0  0  0  0  0  0  0  0  0  0  0  0
    1.7163    1.8502   -1.2657 O   0  0  0  0  0  0  0  0  0  0  0  0
    2.1610    3.7665   -0.1152 O   0  0  0  0  0  0  0  0  0  0  0  0
    0.7400    2.1390   -1.1913 H   0  0  0  0  0  0  0  0  0  0  0  0
    5.7915   -0.7394   -0.0245 C   0  0  0  0  0  0  0  0  0  0  0  0
    6.4903   -1.0577   -0.8180 H   0  0  0  0  0  0  0  0  0  0  0  0
    6.3260   -0.8133    0.9342 H   0  0  0  0  0  0  0  0  0  0  0  0
    4.6685   -1.7492   -0.0369 C   0  0  0  0  0  0  0  0  0  0  0  0
    3.9536   -1.9230   -1.0450 O   0  0  0  0  0  0  0  0  0  0  0  0
    4.5426   -2.4316    1.0952 O   0  0  0  0  0  0  0  0  0  0  0  0
    3.7628   -3.0739    1.0530 H   0  0  0  0  0  0  0  0  0  0  0  0
   -4.7961   -1.8111    0.2963 C   0  0  0  0  0  0  0  0  0  0  0  0
   -3.8054   -1.9906   -0.9445 C   0  0  1  0  0  0  0  0  0  0  0  0
   -3.9894   -0.4932   -1.2731 C   0  0  0  0  0  0  0  0  0  0  0  0
   -5.2802   -0.4872   -0.4101 C   0  0  2  0  0  0  0  0  0  0  0  0
   -4.2691   -2.6592   -1.6852 H   0  0  0  0  0  0  0  0  0  0  0  0
   -4.0835   -0.2191   -2.3331 H   0  0  0  0  0  0  0  0  0  0  0  0
   -3.1709    0.0913   -0.8268 H   0  0  0  0  0  0  0  0  0  0  0  0
   -6.1386   -0.7491   -1.0503 H   0  0  0  0  0  0  0  0  0  0  0  0
   -4.0667   -1.5904    1.6252 C   0  0  0  0  0  0  0  0  0  0  0  0
   -4.7849   -1.3080    2.4118 H   0  0  0  0  0  0  0  0  0  0  0  0
   -3.5790   -2.5230    1.9530 H   0  0  0  0  0  0  0  0  0  0  0  0
   -3.3059   -0.7996    1.5719 H   0  0  0  0  0  0  0  0  0  0  0  0
   -5.8506   -2.9087    0.4348 C   0  0  0  0  0  0  0  0  0  0  0  0
   -5.3927   -3.8586    0.7550 H   0  0  0  0  0  0  0  0  0  0  0  0
   -6.6024   -2.6276    1.1916 H   0  0  0  0  0  0  0  0  0  0  0  0
   -6.3768   -3.0876   -0.5165 H   0  0  0  0  0  0  0  0  0  0  0  0
   -2.4251   -2.4878   -0.6415 C   0  0  0  0  0  0  0  0  0  0  0  0
   -2.3102   -3.8115   -0.6824 O   0  0  0  0  0  0  0  0  0  0  0  0
   -1.4925   -1.7122   -0.3402 O   0  0  0  0  0  0  0  0  0  0  0  0
   -1.3736   -4.1080   -0.4509 H   0  0  0  0  0  0  0  0  0  0  0  0
   -5.6894    0.7628    0.4242 C   0  0  0  0  0  0  0  0  0  0  0  0
   -6.5735    1.2380   -0.0229 H   0  0  0  0  0  0  0  0  0  0  0  0
   -5.9389    0.4642    1.4533 H   0  0  0  0  0  0  0  0  0  0  0  0
   -4.5872    1.7906    0.4886 C   0  0  0  0  0  0  0  0  0  0  0  0
   -3.6582    1.7223    1.3177 O   0  0  0  0  0  0  0  0  0  0  0  0
   -4.6839    2.7243   -0.4515 O   0  0  0  0  0  0  0  0  0  0  0  0
   -3.8881    3.3482   -0.4367 H   0  0  0  0  0  0  0  0  0  0  0  0
    1.2916   -3.6597    0.1197 S   0  0  0  0  0  0  0  0  0  0  0  0
    1.8650   -3.3602   -1.3375 O   0  0  0  0  0  0  0  0  0  0  0  0
    0.7413   -2.2694    0.6564 O   0  0  0  0  0  0  0  0  0  0  0  0
   -1.2460    3.6152   -0.1141 S   0  0  0  0  0  0  0  0  0  0  0  0
   -0.1222    4.6701    0.1204 O   0  0  0  0  0  0  0  0  0  0  0  0
   -1.4117    2.9514    1.3314 O   0  0  0  0  0  0  0  0  0  0  0  0
    2.7364   -2.7905   -1.2283 H   0  0  0  0  0  0  0  0  0  0  0  0
   -0.1967   -2.0513    0.2037 H   0  0  0  0  0  0  0  0  0  0  0  0
    0.8774    4.2264   -0.0074 H   0  0  0  0  0  0  0  0  0  0  0  0
   -2.3365    2.4687    1.3506 H   0  0  0  0  0  0  0  0  0  0  0  0
    0.1746   -4.6183   -0.0554 O   0  0  0  0  0  0  0  0  0  0  0  0
    2.4062   -4.0467    1.0200 O   0  0  0  0  0  0  0  0  0  0  0  0
   -2.5140    4.2998   -0.4767 O   0  0  0  0  0  0  0  0  0  0  0  0
   -0.7839    2.5751   -1.0878 O   0  0  0  0  0  0  0  0  0  0  0  0
  1  9  1  0  0  0  0
  1 13  1  0  0  0  0
  2  5  1  6  0  0  0
  2  1  1  0  0  0  0
  3  2  1  0  0  0  0
  3  4  1  0  0  0  0
  4  8  1  6  0  0  0
  4 21  1  0  0  0  0
  4  1  1  0  0  0  0
  6  3  1  0  0  0  0
  7  3  1  0  0  0  0
  9 11  1  0  0  0  0
  9 10  1  0  0  0  0
 12  9  1  0  0  0  0
 13 14  1  0  0  0  0
 13 15  1  0  0  0  0
 16 13  1  0  0  0  0
 17  2  1  0  0  0  0
 17 19  2  0  0  0  0
 18 20  1  0  0  0  0
 18 17  1  0  0  0  0
 21 23  1  0  0  0  0
 22 21  1  0  0  0  0
 24 21  1  0  0  0  0
 24 26  1  0  0  0  0
 25 24  2  0  0  0  0
 27 26  1  0  0  0  0
 28 40  1  0  0  0  0
 28 36  1  0  0  0  0
 29 32  1  6  0  0  0
 29 44  1  0  0  0  0
 29 28  1  0  0  0  0
 30 29  1  0  0  0  0
 30 34  1  0  0  0  0
 30 31  1  0  0  0  0
 31 35  1  6  0  0  0
 31 28  1  0  0  0  0
 31 48  1  0  0  0  0
 33 30  1  0  0  0  0
 36 38  1  0  0  0  0
 36 37  1  0  0  0  0
 39 36  1  0  0  0  0
 40 41  1  0  0  0  0
 40 42  1  0  0  0  0
 43 40  1  0  0  0  0
 44 46  2  0  0  0  0
 45 44  1  0  0  0  0
 45 47  1  0  0  0  0
 48 51  1  0  0  0  0
 48 50  1  0  0  0  0
 49 48  1  0  0  0  0
 51 52  2  0  0  0  0
 53 54  1  0  0  0  0
 53 51  1  0  0  0  0
 55 57  1  0  0  0  0
 55 66  2  0  0  0  0
 56 61  1  0  0  0  0
 56 55  1  0  0  0  0
 58 59  1  0  0  0  0
 58 60  1  0  0  0  0
 60 64  1  0  0  0  0
 62 57  1  0  0  0  0
 63 59  1  0  0  0  0
 65 55  2  0  0  0  0
 67 58  2  0  0  0  0
 68 58  2  0  0  0  0
M  END
$$$$
