49
3sa2am2dma-43
S        3.28570100      -0.07030100       0.58308100
O        3.01201900      -1.29271300       1.38727100
O        4.67846400       0.28485700       0.41606700
O        2.74837900      -0.38918400      -0.89888300
O        2.40416400       1.04243500       1.07426700
H       -1.05498100       0.54898400      -0.89829000
H        1.74647400      -0.49362700      -0.88731200
S       -2.11951700       1.98730900       0.37311200
O       -1.78187600       1.23169600      -1.00732000
O       -3.36778900       2.67746300       0.11808500
O       -2.23467400       0.88340000       1.39068700
O       -0.94592700       2.83652500       0.68354000
H        1.81601100       2.07082300      -0.12813800
S       -0.39969900      -2.01445200      -0.75698700
O       -0.53818600      -2.37491300       0.69264400
O       -1.71183000      -2.05834200      -1.45119900
O        0.13712100      -0.57119300      -0.80738100
O        0.59038200      -2.90271600      -1.43626400
H        1.85983800      -3.26755100      -0.70500200
N        2.79445200      -3.46620800      -0.19360300
H        2.94291700      -2.68838600       0.50008800
H        3.55628600      -3.45299400      -0.86703500
H        2.76022700      -4.36623000       0.27595900
N        0.16139500      -0.21103300       2.22399400
H        0.31668800      -0.38533600       3.21198400
H       -0.71119200       0.33273000       2.06513800
H        0.97675500       0.30040200       1.83275000
H        0.03745300      -1.11238100       1.70319000
N        1.34765000       2.78517800      -0.73052500
H        0.38279900       2.84811600      -0.33030800
C        2.03507400       4.07705500      -0.52656200
H        2.00090300       4.32299300       0.53455300
H        3.07290600       3.98684800      -0.85044200
H        1.52638900       4.85181600      -1.10197800
C        1.30536000       2.32960600      -2.13733400
H        2.32555100       2.20134900      -2.50108000
H        0.78006000       1.37637500      -2.18318700
H        0.77544900       3.07212000      -2.73558500
C       -4.78557000      -0.51409500      -0.53571200
N       -3.64070800      -1.14873000       0.15007700
C       -3.97726300      -2.30959400       0.99745400
H       -2.92179800      -1.46566000      -0.55688400
H       -5.50563000      -0.16584400       0.20634500
H       -4.41453900       0.33734800      -1.10633400
H       -5.25124800      -1.24229300      -1.20157900
H       -4.63036300      -1.99213500       1.81240900
H       -4.48040800      -3.06216100       0.38827700
H       -3.04444700      -2.72117900       1.38568500
H       -3.15298000      -0.42582200       0.72067800
49
3sa2am2dma-36
S       -0.00927500       1.28247500      -0.87393600
O       -0.42820300      -0.16864900      -1.00235900
O       -0.94846900       2.14497700      -1.63311200
O       -0.02796100       1.65133800       0.58575000
O        1.40199000       1.39542100      -1.40133500
H        2.13572400      -0.12759100      -1.40133500
H       -1.95921500      -0.65992000      -1.11333600
S       -3.05904900      -1.59301800       0.47623100
O       -4.32601900      -2.28696000       0.49219200
O       -2.97849900      -0.35420700       1.30337300
O       -1.85822600      -2.44787800       0.76928900
O       -2.85942400      -1.09296100      -1.04436700
S        3.12336300      -1.52823800      -0.00662300
O        2.50117800      -0.61859900       1.02257300
O        2.49023200      -1.05808200      -1.41555200
O        4.56431000      -1.35415100      -0.08555400
O        2.62173800      -2.90782400       0.13361400
N        0.14387100      -2.84426800      -1.09629100
H        0.17858700      -1.83620300      -1.33854500
H        0.02813600      -3.40862300      -1.93263200
H        1.04855400      -3.06632300      -0.62370300
H       -0.66381000      -2.95282400      -0.45077400
N       -0.05887900      -0.71514900       1.99574600
H        0.92980100      -0.91942900       1.74950800
H       -0.19626800      -0.68481200       3.00107100
H       -0.25212800       0.21533400       1.56362300
H       -0.71150000      -1.41302900       1.57901400
C        4.56159600       2.04865800       0.07666400
N        3.16131200       1.98603000       0.55067900
C        2.76619500       3.05681300       1.48664300
H        2.50065800       1.97056700      -0.26468200
H        5.23151200       2.04807000       0.93773400
H        4.76531600       1.16523300      -0.52975300
H        4.70224200       2.95883300      -0.50804300
H        3.35947300       2.97853700       2.39934800
H        2.94110300       4.02551500       1.01545800
H        1.70328300       2.93677000       1.69831800
H        2.98574100       1.04318900       0.96277000
C       -4.49841700       1.84334400      -0.85109000
N       -3.21928400       1.96772500      -0.12159200
C       -3.13051100       3.12309400       0.79387700
H       -3.07459500       1.09018800       0.43223300
H       -4.64218100       2.72169700      -1.48216700
H       -4.45514700       0.94029800      -1.46027700
H       -5.31412600       1.75782700      -0.13152700
H       -3.29273700       4.04321900       0.23022800
H       -3.88527300       3.02371500       1.57568100
H       -2.12932200       3.12625100       1.22583800
H       -2.41794000       2.03278300      -0.79723700
49
3sa2am2dma-41
S        2.95963800      -0.97935800       0.18746100
O        3.39603000      -2.33490800      -0.20901000
O        4.03518100       0.02693800       0.15143100
O        1.95473800      -0.45104700      -0.94692800
O        2.18581000      -1.00658700       1.44936700
H       -0.92946900       0.65485300      -0.91871000
H        1.00069400      -0.72728500      -0.78154400
S       -0.98476100       2.36781700       0.39426100
O       -1.09840400       1.63938000      -1.03259600
O       -1.33720000       3.74029800       0.14220900
O       -1.94240200       1.61963900       1.28035300
O        0.39384100       2.12885900       0.88698600
H        1.80876400       2.20595800       0.01388200
S       -1.28577800      -2.18635800      -0.46728600
O       -0.55808800      -0.84043700      -0.56696600
O       -1.06896700      -2.67145400       0.94657300
O       -2.72994200      -1.95623800      -0.74387600
O       -0.67966000      -3.14484900      -1.42673200
H        0.63756300      -3.84838000      -0.69742300
N        1.31906000      -4.06383400       0.08153400
H        0.80089200      -3.77618600       0.91848000
H        2.18218900      -3.46835800      -0.02073400
H        1.55129700      -5.05122900       0.11973800
N       -0.33176000      -0.46799900       2.35963100
H       -0.30291100      -0.52398300       3.37281800
H       -0.90958200       0.33617200       2.05406000
H        0.63282700      -0.37555000       1.98639400
H       -0.70909400      -1.35225600       1.93325100
N        2.72557400       2.38356000      -0.45783500
H        3.30517400       1.53186100      -0.28266600
C        2.47934400       2.53920400      -1.90760500
H        2.05833000       1.60570200      -2.27764100
H        1.77438100       3.35758900      -2.06246700
H        3.42307400       2.75101100      -2.41275100
C        3.34865600       3.55680200       0.18626000
H        2.68869000       4.41831500       0.07480300
H        3.48847600       3.33816800       1.24469200
H        4.31416900       3.75797800      -0.28049200
C       -4.30850900       1.11211600      -1.33969000
N       -3.91307900       0.33555000      -0.14574600
C       -5.03753200      -0.06183100       0.72329500
H       -3.40046000      -0.54606400      -0.43871700
H       -4.83802600       2.01362000      -1.02635900
H       -3.40402700       1.39131100      -1.87931000
H       -4.95207700       0.49585600      -1.96921700
H       -5.54096100       0.82894600       1.10290600
H       -5.73628000      -0.67216800       0.14934300
H       -4.64536400      -0.65044600       1.55273300
H       -3.22165900       0.88550600       0.41082200
