39
1msa1fa1tma1eda-202
S        1.34328700      -1.91550200      -0.32922000
O        0.92238500      -1.77008700       1.10615000
O        2.30959800      -0.85320500      -0.70603500
O        0.17752900      -2.01721200      -1.22673000
H       -0.19397500       0.92244500      -0.12711200
C        2.22750400      -3.46284000      -0.42093700
H        1.54499200      -4.26224000      -0.13218100
H        2.56378700      -3.59566000      -1.44944800
H        3.07711400      -3.41411400       0.26022800
H        0.21132000       4.09304500      -2.28168400
H        1.75395100       2.78996400      -0.20586000
C        0.41336700       3.32885200      -1.51838000
O        1.53575000       3.54309600      -0.89053900
O       -0.36387500       2.40794400      -1.31359200
N       -2.97737700      -0.34031700       0.12758300
C       -2.91162900      -1.74938400       0.51787800
H       -1.94680300      -2.16462800       0.21371200
H       -3.01104400      -1.83724900       1.60402500
H       -3.71513400      -2.33782600       0.04446600
C       -4.23101300       0.27409000       0.54385900
H       -4.34807600       0.18283300       1.62783800
H       -4.22734500       1.33591500       0.28078200
H       -5.10239600      -0.20023500       0.06103100
C       -2.76600100      -0.19767900      -1.31658400
H       -2.71187500       0.86299900      -1.57715600
H       -1.82131100      -0.67593900      -1.59128200
H       -3.58116400      -0.66848600      -1.89012500
H        1.72349100       0.45868100       2.48893100
H        1.76832500       2.21083000       2.76665400
H       -0.54233900       1.30380400       2.76329700
H       -0.31194100       2.52782800       1.49574400
H        0.00223600      -0.37196400       0.96349900
H       -1.50124800       0.37661500       0.73577400
H        3.20160100       1.84964900       1.01696200
H        2.26032000       0.77140500       0.24890300
C        1.48659100       1.43501700       2.04900800
C       -0.02132400       1.52849300       1.82955500
N        2.23046000       1.64628900       0.79687400
N       -0.45610200       0.56071100       0.80270000
39
1msa1fa1tma1eda-201
S        2.03717700      -1.54258900      -0.19386700
O        2.74839300      -1.64458400       1.08735500
O        2.23450600      -0.24724700      -0.89977500
O        0.56760200      -1.84030100      -0.07166900
H       -0.14183100      -0.33127400       0.03735200
C        2.68920100      -2.80500200      -1.27416800
H        3.75574300      -2.61786500      -1.40127400
H        2.52429400      -3.77394500      -0.80235200
H        2.17102900      -2.74400900      -2.23108500
H       -0.64531500       4.82793000      -1.64215400
H        1.01186200       3.23953400       0.15814500
C       -0.31794600       3.90951000      -1.13499300
O        0.64063700       4.12595900      -0.28395900
O       -0.84232400       2.82996900      -1.38033200
N       -3.02401400      -1.10606700       0.02021400
C       -2.67929800      -2.04932100       1.08398200
H       -1.61984200      -2.31224500       1.00708900
H       -2.86149700      -1.58588300       2.05858300
H       -3.27840700      -2.97312800       1.02331500
C       -4.40698500      -0.65854400       0.12385500
H       -4.57117700      -0.18876300       1.09788800
H       -4.61527100       0.08020800      -0.65502000
H       -5.12216400      -1.49161500       0.01510900
C       -2.74637200      -1.68962400      -1.29232000
H       -2.95407100      -0.95176100      -2.07268800
H       -1.69126900      -1.97378100      -1.34634000
H       -3.36311900      -2.58386400      -1.48128100
H        1.41611200       0.28165500       2.00147000
H        1.04017400       1.82082200       2.79002700
H       -0.98734600       0.49035400       2.27285100
H       -1.01497800       2.09945000       1.52384600
H       -1.72807300       0.12631200       0.12199200
H       -0.60610900       1.21932100      -0.54877000
H        2.57775200       2.33120800       1.17921000
H        1.95074100       1.33975700       0.05973400
C        0.96736900       1.27062100       1.84744500
C       -0.51498600       1.12693400       1.52040600
N        1.69075800       2.01156200       0.79839000
N       -0.74938500       0.51381600       0.19254400
39
1msa1fa1tma1eda-200
S        1.38103900      -1.52152300      -0.28693700
O        0.37585000      -1.39336000      -1.37258600
O        0.85128400      -2.04150500       0.97862800
O        2.10643200      -0.20767300      -0.10907400
H        2.21993400       0.41100000       1.31817600
C        2.61496400      -2.66655000      -0.87584300
H        2.12574500      -3.62633200      -1.04357100
H        3.03168400      -2.27694000      -1.80453000
H        3.38570100      -2.75717900      -0.11013900
H        1.40711300       1.93891200       3.60722500
H       -0.26327300       1.11750600       0.32942700
C        1.28217500       1.50735100       2.60519800
O        0.25127800       1.67149300       1.96664100
O        2.33812500       0.84923700       2.22640600
N       -2.99373100      -0.44682900       0.12681700
C       -2.46235900      -0.96433900       1.39066100
H       -1.46758400      -1.39156500       1.23227200
H       -2.37783700      -0.14832200       2.11437800
H       -3.11760900      -1.74403400       1.81263400
C       -4.31058100       0.14967600       0.31171900
H       -4.25224200       0.95056800       1.05436900
H       -4.66319000       0.57481300      -0.63267500
H       -5.05262300      -0.58980200       0.65788600
C       -3.01802300      -1.49642100      -0.89240400
H       -3.39128800      -1.08279900      -1.83432100
H       -2.00301600      -1.87057400      -1.05267700
H       -3.67053400      -2.33459800      -0.59655700
H       -1.24453200       2.23915100      -2.22493600
H       -1.39927700       3.03014600      -0.63184900
H        0.55128100       3.88463900      -1.89381200
H        1.03900400       3.10628700      -0.38402500
H        2.22732200       2.51027400      -2.60985300
H        1.82547800       1.25909100      -1.63101400
H       -1.71263200       0.62826400      -0.37350000
H       -0.26481900       0.32228500      -1.14165900
C       -0.78366500       2.36420600      -1.24245200
C        0.62975400       2.91685400      -1.38878400
N       -0.75558800       1.04233500      -0.58057600
N        1.44549500       2.01926400      -2.19466300
