1sa_2dma_1w_H.log
 OpenBabel02281910173D
Gaussian users/kemi/kmacke/programs/G09D/g09/g09 # opt freq 6-31++g(d,p) wb97xd
 31 27  0  0  0  0  0  0  0  0999 V2000
   -0.2770    0.1402    0.2878 S   0  0  0  0  0  0  0  0  0  0  0  0
   -1.1360   -0.5104   -0.7163 O   0  0  0  0  0  0  0  0  0  0  0  0
    0.8210   -0.7038    0.7851 O   0  0  0  0  0  0  0  0  0  0  0  0
    0.1253    1.5116   -0.0360 O   0  0  0  0  0  0  0  0  0  0  0  0
    3.4283   -0.4854   -0.1026 N   0  0  0  0  0  0  0  0  0  0  0  0
    2.4804   -0.6323    0.3013 H   0  0  0  0  0  0  0  0  0  0  0  0
    3.3639    0.4672   -0.5211 H   0  0  0  0  0  0  0  0  0  0  0  0
    4.4412   -0.4885    0.9788 C   0  0  0  0  0  0  0  0  0  0  0  0
    3.6585   -1.4946   -1.1627 C   0  0  0  0  0  0  0  0  0  0  0  0
    4.4387   -1.4612    1.4714 H   0  0  0  0  0  0  0  0  0  0  0  0
    5.4244   -0.2921    0.5502 H   0  0  0  0  0  0  0  0  0  0  0  0
    4.1882    0.2917    1.6960 H   0  0  0  0  0  0  0  0  0  0  0  0
    3.6435   -2.4899   -0.7179 H   0  0  0  0  0  0  0  0  0  0  0  0
    4.6254   -1.3116   -1.6325 H   0  0  0  0  0  0  0  0  0  0  0  0
    2.8638   -1.4108   -1.9037 H   0  0  0  0  0  0  0  0  0  0  0  0
   -3.7194   -0.3437   -0.0207 N   0  0  0  0  0  0  0  0  0  0  0  0
   -3.5830   -0.4385    0.9879 H   0  0  0  0  0  0  0  0  0  0  0  0
   -2.7501   -0.4775   -0.4098 H   0  0  0  0  0  0  0  0  0  0  0  0
   -4.1519    1.0461   -0.3205 C   0  0  0  0  0  0  0  0  0  0  0  0
   -4.6356   -1.3983   -0.5215 C   0  0  0  0  0  0  0  0  0  0  0  0
   -5.6142   -1.2818   -0.0549 H   0  0  0  0  0  0  0  0  0  0  0  0
   -4.2154   -2.3740   -0.2794 H   0  0  0  0  0  0  0  0  0  0  0  0
   -4.7257   -1.2951   -1.6027 H   0  0  0  0  0  0  0  0  0  0  0  0
   -5.1205    1.2336    0.1437 H   0  0  0  0  0  0  0  0  0  0  0  0
   -3.4014    1.7325    0.0709 H   0  0  0  0  0  0  0  0  0  0  0  0
   -4.2265    1.1607   -1.4018 H   0  0  0  0  0  0  0  0  0  0  0  0
   -1.3398    0.2727    1.5403 O   0  0  0  0  0  0  0  0  0  0  0  0
   -0.8987    0.6805    2.2986 H   0  0  0  0  0  0  0  0  0  0  0  0
    1.7616    2.0324   -0.6531 H   0  0  0  0  0  0  0  0  0  0  0  0
    2.8968    2.7601   -1.4569 H   0  0  0  0  0  0  0  0  0  0  0  0
    2.7100    2.0146   -0.8822 O   0  0  0  0  0  0  0  0  0  0  0  0
  1  3  1  0  0  0  0
  1 27  1  0  0  0  0
  2  1  2  0  0  0  0
  4  1  2  0  0  0  0
  5  6  1  0  0  0  0
  5  8  1  0  0  0  0
  7  5  1  0  0  0  0
  8 10  1  0  0  0  0
  8 12  1  0  0  0  0
  9 13  1  0  0  0  0
  9  5  1  0  0  0  0
 11  8  1  0  0  0  0
 14  9  1  0  0  0  0
 15  9  1  0  0  0  0
 16 17  1  0  0  0  0
 18 16  1  0  0  0  0
 19 16  1  0  0  0  0
 19 25  1  0  0  0  0
 19 24  1  0  0  0  0
 20 22  1  0  0  0  0
 20 21  1  0  0  0  0
 20 16  1  0  0  0  0
 23 20  1  0  0  0  0
 26 19  1  0  0  0  0
 27 28  1  0  0  0  0
 30 31  1  0  0  0  0
 31 29  1  0  0  0  0
M  RAD  1   3   2
M  END
$$$$
