43
3sa3am1dma-23
S       -2.27615400      -2.15550700      -0.04773300
O       -2.34298700      -1.31208400       1.18533800
O       -0.84683200      -2.56180800      -0.26923000
O       -3.23954400      -3.22864900      -0.12670500
O       -2.63726900      -1.15867900      -1.25603600
H       -1.94194600      -0.43789000      -1.31502000
S        3.89448600      -0.50847100       0.41726600
O        4.48226500       0.81432400       0.70782700
O        3.29344900      -1.15205000       1.59995100
O        3.02045300      -0.49330400      -0.76628400
O        5.11722400      -1.46542800      -0.04450600
H        5.71265300      -1.58769000       0.70781400
S       -0.43736500       1.89464900      -0.77367200
O       -0.67716000       0.52896300      -1.40293000
O        0.16849900       1.64119700       0.60997000
O        0.51919600       2.66833200      -1.59248600
O       -1.75265300       2.57192100      -0.61224800
N        0.86825300      -1.47514800      -2.13411200
H        0.38260500      -0.54436300      -2.03368700
H        1.79032700      -1.37423400      -1.67494000
H        0.26513800      -2.13539300      -1.60662500
H        0.96654000      -1.75136400      -3.10590000
N        0.49069200      -0.91805200       1.53251200
H        1.50477800      -1.07709700       1.66884400
H        0.32909800       0.05065000       1.15965500
H        0.08799400      -1.59950900       0.85649900
H       -0.02799200      -1.02972100       2.39960800
N        2.59233600       2.75919800       0.16048900
H        2.82130900       3.68671200       0.50432100
H        2.25544100       2.80992300      -0.81496500
H        3.39116100       2.10143800       0.28285500
H        1.73937800       2.37764700       0.63650200
C       -3.57466900       1.85076500       2.11155900
N       -3.49715600       1.13912400       0.82134100
C       -4.79522700       0.95014600       0.14109600
H       -2.83602900       1.67956200       0.19605900
H       -4.17668400       1.27162400       2.81387100
H       -2.56199200       1.97390600       2.49622500
H       -4.02258700       2.83322500       1.95476300
H       -5.46899400       0.39539600       0.79637400
H       -5.22089100       1.92553600      -0.09944800
H       -4.62081500       0.37759700      -0.76979600
H       -3.06059500       0.20012100       0.97438200
43
3sa3am1dma-31
S        2.78332000       0.82754200       0.49419300
O        2.31854300       0.22496000      -0.93057400
O        4.13821000       1.28949700       0.26928700
O        2.68322100      -0.34453300       1.43632200
O        1.78333900       1.85040400       0.86817600
H        3.28323700      -1.70859900       0.61056600
H        1.43361500      -0.25479100      -0.84249600
S       -2.64442500       1.09651500       0.42276300
O       -3.28157000      -0.15172000       0.90500600
O       -3.54001800       2.18534100       0.08053300
O       -1.50664500       1.49438900       1.29587000
O       -1.93893400       0.71914900      -1.00127200
H       -1.24791200      -0.00230200      -0.87803200
H       -0.53599000       0.26516800       1.95028700
S       -0.20511300      -2.45535900      -0.60715700
O       -0.65463400      -2.75211500       0.79527000
O        0.03676100      -0.94059800      -0.67958000
O        1.06910500      -3.15416000      -0.93844000
O       -1.27816200      -2.81665800      -1.57382400
H       -2.67566700      -2.74339300      -0.79815600
N        3.43670000      -2.41480700      -0.15009900
H        3.88590500      -1.93097900      -0.92587400
H        2.46264700      -2.75078300      -0.46662100
H        4.01199400      -3.19008800       0.16516800
N       -3.41050300      -2.65311900      -0.03152500
H       -4.32277400      -2.99376800      -0.31792600
H       -3.44919400      -1.64490600       0.26611400
H       -3.03915600      -3.19141500       0.75079000
N        0.01108300      -0.54682100       2.32265000
H       -0.30087100      -1.41552400       1.82806000
H       -0.13656500      -0.62767500       3.32393100
H        1.01856600      -0.40980900       2.11422500
C        0.83810300       3.02157500      -2.11533800
N       -0.00949800       2.84842400      -0.91502200
C       -0.63507700       4.09579500      -0.41654000
H       -0.74696800       2.14852500      -1.10228100
H        1.63730200       3.72595800      -1.88139200
H        1.27578800       2.05706300      -2.37309100
H        0.22889400       3.40075400      -2.93693200
H        0.15515400       4.80399000      -0.16402300
H       -1.28196100       4.50710600      -1.19219400
H       -1.22489000       3.84833900       0.46495700
H        0.58198000       2.43637200      -0.15682300
43
3sa3am1dma-10
S       -2.82016700      -0.80038900       0.64831900
O       -1.30752400      -0.59425800       0.57448000
O       -3.03389600      -2.19737700       1.11160000
O       -3.42470500       0.21635300       1.55413900
O       -3.34779800      -0.59360700      -0.75692000
H       -2.10024600      -0.99664200      -1.78868300
H       -3.56907700       1.60602300       0.67050900
S        2.06246900      -1.82169300      -0.54720300
O        1.76919200      -1.24953800       0.80416100
O        3.28777200      -2.58823900      -0.62932100
O        0.84764800      -2.52617400      -1.06776200
O        2.30250600      -0.55365700      -1.50260900
H        1.53498800       0.08293200      -1.49795300
H       -0.12058300      -3.15076300       0.36074300
S        0.10004800       2.25915500      -0.61081300
O        0.29906900       1.16607700      -1.62195100
O       -1.10736600       3.04660400      -0.91979100
O       -0.11481400       1.54344600       0.78103700
O        1.32751800       3.04726500      -0.41937600
H        2.38280000       1.95412400       0.49058200
H       -0.67018400       0.65470400       0.69989300
N       -1.18424500      -1.02726700      -2.31276900
H       -0.75340000      -0.08864500      -2.20196200
H       -1.30961600      -1.26216000      -3.29239500
H       -0.52279300      -1.68767700      -1.85956900
N       -3.61775700       2.16453400      -0.23020400
H       -4.33291100       2.88435900      -0.20355800
H       -3.83799400       1.43131100      -0.91528900
H       -2.67902200       2.56665900      -0.45902900
N       -0.48513900      -3.05393900       1.32618100
H       -0.24086500      -3.85832500       1.89537800
H       -1.52573800      -2.86037800       1.30483000
H       -0.01832000      -2.20177100       1.65604100
N        2.84329100       1.26463200       1.12161300
H        2.33406400       0.35805300       1.00432900
C        4.24865400       1.05598100       0.70907400
H        4.25264300       0.70196400      -0.32186300
H        4.79294500       1.99778900       0.79179900
H        4.69893600       0.29960600       1.35315600
C        2.66462800       1.72639400       2.51455800
H        3.18487500       2.67579800       2.64889800
H        1.59688400       1.85850800       2.68798400
H        3.07146000       0.97624600       3.19427500
