52
3sa1am1ma2dma-3
S        3.14604000      -0.68339400       0.50794600
O        3.66891200      -1.98808500       0.05061700
O        4.09143700       0.43425600       0.35498500
O        1.97999100      -0.28408900      -0.53592700
O        2.50190300      -0.76482200       1.83442200
H       -0.90413700       0.37494600      -0.87683900
H        1.08794700      -0.68270100      -0.30862200
S       -1.14591700       2.37007800      -0.03735600
O       -1.11985600       1.29673500      -1.22739300
O       -1.02375600       3.66375700      -0.68889100
O       -2.39449200       2.12228400       0.71779500
O        0.04488800       2.04043300       0.82358300
H        1.55022200       2.26301500       0.09386200
S       -1.43448400      -2.08785700       0.15856500
O       -2.57182800      -2.10823200      -0.80302700
O       -0.43126500      -1.02725400      -0.32558300
O       -1.91711800      -1.65716100       1.50991100
O       -0.72050900      -3.39309300       0.21550100
H        0.76728800      -3.50984700      -0.33708300
N       -0.05345000      -0.04122400       2.59937300
H       -0.13346700       0.82506800       2.02616000
H       -0.15967900       0.16617500       3.58716300
H       -0.79200700      -0.71875800       2.27043900
H        0.89246400      -0.42332100       2.40586900
N        1.68500600      -3.63495400      -0.86058300
H        1.94712200      -4.61620800      -0.79703500
H        2.44425600      -3.06420900      -0.41566500
C        1.49328000      -3.21142400      -2.26796800
H        0.68953800      -3.79814800      -2.71219400
H        1.21423000      -2.15879200      -2.26184900
H        2.42290300      -3.34444600      -2.82094300
N        2.42903000       2.58649900      -0.37314500
H        3.15275300       1.87278200      -0.14980100
C        2.17594500       2.61658800      -1.83204300
H        1.94134800       1.60199400      -2.14952200
H        1.32533300       3.27270100      -2.02428600
H        3.06900000       2.97851100      -2.34411900
C        2.78641700       3.89833600       0.20342000
H        1.95509600       4.58671500       0.04422900
H        2.96248200       3.77421700       1.27185700
H        3.68995600       4.27502400      -0.27846200
C       -4.64278000       0.71610600      -1.35049000
N       -4.00838500       0.08223800      -0.17817500
C       -4.94184300      -0.36494500       0.87552300
H       -3.44715500      -0.75733500      -0.48801400
H       -5.21124600       1.58948400      -1.02697600
H       -3.85461500       1.02705800      -2.03661800
H       -5.30196800      -0.00415900      -1.83762700
H       -5.46570600       0.49901600       1.28816300
H       -5.65669800      -1.06803600       0.44505000
H       -4.35428500      -0.86536700       1.64575300
H       -3.33918700       0.76968300       0.22974800
52
3sa1am1ma2dma-39
S        0.02398800       1.34661800      -0.95637100
O       -0.40620800      -0.09670200      -1.13711700
O       -0.90808900       2.24052400      -1.68811400
O        0.00312800       1.66374900       0.51422600
O        1.43779200       1.46655900      -1.47507000
H        2.16673100      -0.05895200      -1.50403600
H       -1.94559800      -0.56103000      -1.28455300
S       -3.06665500      -1.56559500       0.24610400
O       -1.88826200      -2.46283900       0.48764200
O       -4.35128400      -2.22682800       0.22161800
O       -2.96182800      -0.37791800       1.14552500
O       -2.85515900      -0.97738500      -1.24122900
S        3.12762300      -1.51707600      -0.14547200
O        2.52444500      -0.98726800      -1.54748300
O        2.51552000      -0.62728900       0.90504800
O        2.59030100      -2.88835100      -0.05450200
O        4.57329500      -1.37968400      -0.20573500
N        0.15565200      -2.76203400      -1.35326100
H       -0.67043800      -2.90802900      -0.74014200
H        0.07233200      -3.28384800      -2.22042300
H        0.19070000      -1.74224300      -1.54244400
H        1.04710900      -3.00175100      -0.86311000
C       -0.38646500      -0.80598600       3.27366400
N       -0.08252200      -0.78317100       1.83151300
H       -0.68973700      -1.45493500       1.32497900
H       -0.25357600       0.15212700       1.40989600
H       -0.16130400      -1.79346200       3.67624700
H        0.21807500      -0.05593200       3.78459700
H       -1.44678900      -0.58890200       3.40220500
H        0.91207700      -0.97264300       1.61303300
C       -3.05580300       3.12441600       0.80468800
N       -3.17092200       2.01769400      -0.16633300
C       -4.45859500       1.94928100      -0.88826300
H       -2.37518000       2.10497700      -0.84616700
H       -3.80639800       2.99854900       1.58676100
H       -2.05088800       3.08926800       1.22663600
H       -3.20722000       4.07390600       0.28875500
H       -5.26861000       1.83807000      -0.16579500
H       -4.59527600       2.86124700      -1.47140900
H       -4.43407400       1.07857600      -1.54369600
H       -3.03488100       1.11182400       0.34177500
C        2.78877700       3.01847700       1.48941500
N        3.18027100       1.97956500       0.51718700
C        4.58530000       2.04262300       0.05815500
H        2.99152400       1.02278800       0.89249000
H        2.97608600       4.00264600       1.05652400
H        1.72334900       2.90019300       1.68914300
H        3.37469200       2.90013800       2.40261400
H        4.74322900       2.97233200      -0.49031600
H        5.24734100       2.00020700       0.92425800
H        4.78376200       1.18064800      -0.58011900
H        2.52780100       2.00128100      -0.30405800
52
3sa1am1ma2dma-35
S       -0.00269100       1.33158600      -0.91868600
O       -0.43335100      -0.12098500      -0.88163000
O       -0.93673100       2.10860000      -1.77112100
O       -0.01667300       1.86165400       0.49041100
O        1.40797700       1.37449100      -1.45721000
H        2.12490600      -0.16146100      -1.32419500
H       -1.94939400      -0.65224600      -0.94304200
S        3.13988000      -1.39368700       0.19985800
O        2.50321700      -0.40642600       1.14651800
O        2.45049400      -1.09722500      -1.23219100
O        4.56943100      -1.16001300       0.06338800
O        2.70586200      -2.76981800       0.48860900
S       -3.06976300      -1.39579700       0.73332400
O       -1.87656900      -2.20090100       1.15943100
O       -3.00770000      -0.05919000       1.39331400
O       -2.84027800      -1.09660800      -0.83681500
O       -4.33741600      -2.08522800       0.81099100
N       -0.05346000      -0.34590700       2.13907900
H       -0.24193000       0.53486800       1.61057600
H        0.92684800      -0.59381700       1.89718600
H       -0.16400700      -0.20073700       3.13770700
H       -0.72567800      -1.07677800       1.81916200
C       -0.04604400      -3.62245300      -1.87346300
N        0.14502100      -2.80164600      -0.66055000
H        1.04091500      -3.01479100      -0.18088300
H        0.19431400      -1.79423200      -0.90151400
H       -0.08556700      -4.67533900      -1.59586900
H       -0.98029900      -3.33051500      -2.35271600
H        0.79224300      -3.44632700      -2.54665200
H       -0.64657700      -2.87476300       0.00263600
C       -4.49557400       1.85537800      -1.02575200
N       -3.23109500       2.07282900      -0.29299600
C       -3.16639300       3.32496100       0.48706400
H       -3.09183700       1.26461800       0.35991500
H       -4.63247500       2.65325800      -1.75725600
H       -4.43644100       0.88799800      -1.52499100
H       -5.32421900       1.84752100      -0.31599100
H       -3.32497400       4.17418400      -0.17951800
H       -3.93363100       3.30782900       1.26283400
H       -2.17303000       3.38635800       0.93260600
H       -2.41743800       2.06857400      -0.95729000
C        2.78236000       3.29558800       1.26138300
N        3.17775400       2.14601100       0.42381700
C        4.57382800       2.17785500      -0.06598000
H        3.01122900       1.24460500       0.92270300
H        2.95082700       4.21806600       0.70314000
H        1.72095300       3.19225600       1.48832500
H        3.38127900       3.30256700       2.17374000
H        4.69948800       3.03153900      -0.73349200
H        5.24989700       2.26459300       0.78589900
H        4.78183600       1.24311500      -0.58783000
H        2.51124900       2.05162800      -0.38164600
