54
4sa2ma1eda-25
S       -3.94038900      -0.98773500      -0.63854100
O       -3.92566700      -1.35584400       0.78645800
O       -4.22701600       0.43869000      -0.88186700
O       -2.78645000      -1.49413200      -1.40868700
O       -5.17000300      -1.80886700      -1.30053200
H       -5.98202600      -1.56810800      -0.83352300
S        1.43154900      -1.80961400       1.74844000
O        1.59020500      -2.97215200       0.84202400
O        0.95008500      -0.63057400       0.97600800
O        0.63395800      -2.07365700       2.94733600
O        2.88008500      -1.41651700       2.29084700
H        3.39019800      -1.00530500       1.55133100
S       -1.59233000       2.45921300      -0.06620600
O       -1.54128300       2.67925400      -1.53000300
O       -1.13847700       1.07263000       0.24030700
O       -0.89228300       3.46533500       0.73959700
O       -3.11491300       2.54573900       0.39490200
H       -3.61269800       1.81959800      -0.06199200
S        3.89967600       0.36104900      -1.07160200
O        4.12989200       0.01598200       0.34477800
O        3.66668900      -0.82650500      -1.92631700
O        2.93218200       1.44231100      -1.28820000
O        5.28697200       1.00387300      -1.59822600
H        5.99798500       0.36575500      -1.44674400
C        2.53126100       2.38946600       2.16925500
N        1.57957800       2.06938600       1.08369700
H        0.76451600       2.70788500       1.05179600
H        2.05448400       2.07691900       0.16445400
H        2.02717100       2.28698800       3.12990000
H        3.36743200       1.69336300       2.10984300
H        2.88686800       3.41205400       2.04590900
H        1.22254200       1.09812400       1.17236000
C       -2.29857600       0.29943100       3.35892900
N       -1.74652600      -0.59840400       2.32251200
H       -1.31056800      -0.02693700       1.57174500
H       -1.02743000      -1.24311000       2.68883800
H       -2.97567500       1.00651400       2.87946200
H       -2.83485200      -0.28773700       4.10366800
H       -1.48037400       0.84039100       3.83401000
H       -2.50741900      -1.11444100       1.84748100
C        0.30152300      -1.83614500      -2.41077000
C        0.23282800      -0.34462200      -2.09600300
N       -1.05078800       0.21886200      -2.58233100
N        1.50600900      -2.42796100      -1.77260600
H        1.71860400      -3.34087700      -2.17045500
H        1.40666600      -2.58110800      -0.72794600
H       -0.58180300      -2.34858200      -2.02147000
H        0.37013600      -2.01235400      -3.48835500
H        1.06030000       0.20962200      -2.54395800
H        0.25344000      -0.18845100      -1.01692800
H       -1.12245300       0.21395100      -3.59834400
H       -1.18465000       1.21010400      -2.24269200
H        2.35387100      -1.81622700      -1.88554900
H       -1.84229900      -0.34113100      -2.18107900
54
4sa2ma1eda-32
S       -2.58219600      -2.20732300      -0.71446400
O       -1.36288000      -3.16925600      -0.25592900
O       -2.43071200      -2.16275600      -2.18619700
O       -2.20267600      -0.87043200      -0.12912100
O       -3.82006400      -2.74752600      -0.20118000
H       -2.85485700       0.58890700      -0.67421600
H       -0.93268700      -2.83515400       0.56458200
S        0.63741500      -0.99906100       2.17389300
O        0.55189300      -2.27974000       1.40029000
O        0.43866500       0.15853200       1.27164700
O       -0.23694700      -0.99610400       3.34458000
O        2.12372400      -0.91109800       2.72414000
H        2.70699700      -0.45022800       2.06797800
S        4.01380600       0.24977700      -0.41731900
O        3.65685400       0.47395600       0.99797900
O        3.99621400      -1.18159600      -0.79503400
O        3.28720100       1.11882700      -1.35257600
O        5.54452200       0.72932700      -0.58249100
H        6.09915600       0.21713100       0.02287300
S       -2.14193000       2.63939600      -0.76951800
O       -1.71225100       2.65458800       0.65214000
O       -3.23132200       1.47142200      -0.92020200
O       -2.78804100       3.83738800      -1.24808300
O       -0.97022000       2.18762600      -1.61586700
C        1.37709000       3.77967700       0.75755500
N        1.25929200       2.48346400       0.05749800
H        0.46684300       2.47980300      -0.61483000
H        2.11466100       2.21709100      -0.45344900
H        0.42613600       3.99002400       1.24566600
H        2.18077100       3.71620800       1.49081200
H        1.59851600       4.56075400       0.03061200
H        1.05767600       1.70820800       0.71140700
C       -3.74306900       0.76960200       2.79205200
N       -2.39717100       0.49942300       2.24464200
H       -2.42988900      -0.20627400       1.48595200
H       -2.00203000       1.34509900       1.78469400
H       -4.15951100      -0.15134100       3.19893300
H       -3.66930500       1.52460700       3.57401600
H       -4.37619800       1.13837900       1.98530800
H       -1.72439000       0.13698800       2.93586900
C        0.88399300      -2.08365100      -2.15877900
N        1.71388500      -2.59447700      -1.03676100
C        0.50584500      -0.63118000      -1.87941000
N       -0.61544900      -0.19794400      -2.75253400
H        1.90582100      -3.58810600      -1.15228600
H        1.23477500      -2.47329400      -0.10546400
H        1.46618000      -2.18102300      -3.07884300
H       -0.01167600      -2.70457600      -2.21764000
H        1.35230000       0.04373200      -2.02930100
H        0.14881400      -0.51489000      -0.85190200
H       -0.35389800      -0.15120000      -3.73595400
H       -0.90396900       0.76572500      -2.42912000
H       -1.42156200      -0.86454400      -2.63997400
H        2.62907500      -2.08187100      -0.96840000
54
4sa2ma1eda-46
S       -3.11056100      -0.14240000      -1.75146700
O       -2.87251300       1.41503300      -1.38622700
O       -4.17719900      -0.51502500      -0.81387300
O       -1.79802300      -0.80126100      -1.36300700
O       -3.36779000      -0.27125800      -3.17012500
H       -1.11880100      -0.98070700       0.11749400
H       -1.93381700       1.67194200      -1.53550100
S        3.63607600      -0.01479500      -0.55389600
O        3.22825200       1.25153700      -1.46711600
O        4.11281600      -1.00919100      -1.50817800
O        2.27681600      -0.44989700       0.00589900
O        4.51104700       0.42835800       0.51550100
H        1.78843500      -2.01582700      -0.24872200
H        2.76030400       1.91065800      -0.90283400
S        0.12546700       2.66320800      -0.05847700
O       -0.64205100       2.18960200       1.11808000
O        1.57472800       2.70246200       0.21088700
O       -0.23538700       1.99994600      -1.32058000
O       -0.34318800       4.18688200      -0.32415600
H       -0.05298500       4.73947100       0.41473600
S       -0.73386600      -2.15338600       1.96214400
O       -0.45680400      -0.97671200       0.86304400
O       -0.51309200      -3.42189100       1.23241500
O        0.29739700      -1.86468800       2.96985200
O       -2.11792600      -1.95214300       2.41432400
C       -3.98128600       1.35889500       2.38988000
N       -3.10111300       0.51829400       1.55158800
H       -3.60446500       0.17424200       0.70404900
H       -2.27585500       1.05089700       1.23718400
H       -4.84203300       0.76855500       2.70180100
H       -3.42929300       1.70015000       3.26516600
H       -4.31329000       2.21446800       1.80282500
H       -2.76750600      -0.33425700       2.04424100
C        2.50978300       1.30863100       3.14693700
N        1.44994400       0.59662100       2.40370800
H        0.64821000       1.20111500       2.18015000
H        1.80401800       0.25922300       1.48416900
H        2.13003900       1.61475700       4.12184000
H        3.36381200       0.64345000       3.26555500
H        2.81267300       2.17768700       2.56455100
H        1.08930600      -0.25055500       2.87676800
C        0.66449700      -2.88556300      -1.82567300
N        1.45125000      -2.96394300      -0.55851100
C        1.12716500      -1.77148500      -2.75714200
N        0.68909400      -0.44514600      -2.25130000
H        2.28016700      -3.54714700      -0.65835400
H        0.82470100      -3.32282800       0.20887900
H        0.75086400      -3.84481100      -2.33734900
H       -0.38356300      -2.74528200      -1.54953700
H        0.66785000      -1.92519200      -3.73501200
H        2.21570800      -1.75066500      -2.86016000
H       -0.34558300      -0.43040100      -2.07339500
H        0.94334200       0.32026200      -2.87483200
H        1.15205600      -0.23893600      -1.34290400
