38
1sa1nta2tma-11
S       -0.09742600      -1.55519700       0.47610300
O       -0.47810200      -0.74095700       1.79662300
O       -1.00105900      -2.69708100       0.47058200
O       -0.32988200      -0.59914000      -0.65732100
O        1.34957600      -1.87779700       0.56019800
H        2.27014500      -0.65674700      -0.02169800
N        0.09553800       2.25378900       0.60571800
O       -1.13960100       2.26372300       0.75483300
O        0.65339300       2.95453400      -0.24887000
O        0.80296500       1.49776300       1.34763600
H       -0.03496500       0.16065600       1.75442200
N        3.05077200      -0.14199200      -0.51455400
C        3.94758700      -1.21573200      -1.00149400
H        4.27990300      -1.80974700      -0.14993800
H        3.38682700      -1.85423100      -1.68390700
H        4.80370000      -0.76883500      -1.51197700
C        2.45543000       0.63049300      -1.63572300
H        1.81717200      -0.03855400      -2.21243800
H        1.85517800       1.44370800      -1.22462700
H        3.26481100       1.02819500      -2.25360300
C        3.71999000       0.74385100       0.47080200
H        2.97693500       1.44901700       0.84577600
H        4.09582900       0.12959600       1.29012000
H        4.54615400       1.26199200      -0.02214100
N       -2.91498200       0.04469300      -0.62270000
C       -3.20069500       1.29490600      -1.36684800
H       -2.72633000       2.12237500      -0.83782300
H       -2.77323400       1.20854700      -2.36669200
H       -4.28252900       1.43381900      -1.43388400
C       -3.41192100      -1.16288500      -1.32693500
H       -2.98857100      -1.18005300      -2.33159600
H       -3.06929200      -2.04289600      -0.78010200
H       -4.50276000      -1.12781200      -1.37679900
C       -3.41282200       0.10172000       0.77729600
H       -3.12927700      -0.82223500       1.28131400
H       -2.93275600       0.94394100       1.27370800
H       -4.49957200       0.21643900       0.75786500
H       -1.86158200      -0.07191700      -0.58491300
38
1sa1nta2tma-16
S        0.04525000      -1.60477600      -0.12321300
O       -1.01999300      -2.25912200      -0.88729100
O        1.14002800      -2.45088700       0.34776600
O        0.80268000      -0.57907400      -1.15627700
O       -0.50627800      -0.70244400       0.93177700
H       -2.00525400      -0.20035500       0.40266000
N       -0.20240600       2.32783800      -0.28460100
O        1.02175300       2.28180200      -0.05703200
O       -0.94826500       3.10814700       0.31031300
O       -0.69286800       1.53785400      -1.16005900
H        0.23854800       0.25474400      -1.26393400
N       -3.04499600      -0.09293200       0.25647400
C       -3.64179600      -1.31150800       0.85534900
H       -3.22575700      -2.17811700       0.34051400
H       -3.37029600      -1.35262800       1.91038400
H       -4.72781000      -1.27076300       0.74340200
C       -3.45555900       1.14745800       0.95880900
H       -3.21565600       1.04290700       2.01752400
H       -2.89329800       1.98602200       0.54274600
H       -4.53121800       1.29002500       0.82993600
C       -3.31817300      -0.01959000      -1.20248200
H       -2.82974700       0.87145300      -1.59387200
H       -2.89216700      -0.90855500      -1.66791300
H       -4.39981400       0.02430100      -1.35272600
N        3.14602300       0.09360300       0.14276800
C        3.92275200      -1.14662200      -0.11668300
H        3.31487500      -1.99711800       0.19182900
H        4.12514700      -1.21379300      -1.18611900
H        4.86037400      -1.09847300       0.44161500
C        3.85054800       1.29923000      -0.35939600
H        4.01656800       1.18430100      -1.43099800
H        3.22518000       2.17098600      -0.17752100
H        4.80820000       1.38707500       0.15877400
C        2.77704900       0.22241500       1.57955400
H        2.12275600       1.08785700       1.68163100
H        2.24300700      -0.68107400       1.87385700
H        3.69192800       0.34474000       2.16403000
H        2.24470200      -0.00517800      -0.38138800
38
1sa1nta2tma-17
S       -0.21472500       1.46708100      -0.32029100
O       -0.54041400       0.45701400      -1.51756000
O        0.77054300       2.44460000      -0.78077200
O       -1.54946300       2.03263100       0.00183900
O        0.30449000       0.61066200       0.78785100
H       -2.54023600       0.77974800       0.14611300
H        1.92263000       0.29822500       0.48892900
N        0.55152600      -2.38898100      -0.34803000
O       -0.68425300      -2.50285300      -0.27484200
O        1.31373300      -3.05464800       0.35852600
O        1.04860000      -1.55238400      -1.17887400
H        0.04856400      -0.36592400      -1.44980500
N       -3.24568000       0.01403000       0.35707200
C       -2.70604300      -0.75283700       1.51117900
H       -1.78411500      -1.24550900       1.19990900
H       -2.50024700      -0.05338400       2.32172800
H       -3.44596200      -1.49500800       1.82026500
C       -4.50137600       0.71866000       0.69792300
H       -4.31278200       1.38488200       1.54032700
H       -4.82114500       1.30700000      -0.16269300
H       -5.26902900      -0.01295100       0.95982200
C       -3.38926300      -0.83807900      -0.85155200
H       -3.66524100      -0.20268600      -1.69336000
H       -2.43204500      -1.32242500      -1.04598100
H       -4.16458600      -1.58554800      -0.66510200
N        2.97359000       0.36133700       0.43548600
C        3.31892800       1.61113900       1.15608400
H        2.81728500       2.43994200       0.65497600
H        2.95571300       1.53381000       2.18108500
H        4.40327800       1.74352500       1.14656500
C        3.52925000      -0.84862400       1.09022200
H        3.21780400      -0.85407800       2.13545500
H        3.12245000      -1.73142300       0.59287000
H        4.61944700      -0.81765400       1.02356800
C        3.36030800       0.43824100      -0.99812800
H        3.04924700      -0.48718400      -1.48053800
H        2.83865400       1.28595600      -1.44397100
H        4.44315800       0.57152100      -1.06091300
