80
4sa4tma-27
S        0.98637000       0.52527300      -2.65512200
O        0.49107400      -0.83482100      -2.93010800
O        0.51211100       1.57029800      -3.55613300
O        0.73805700       0.87238300      -1.20977600
O        2.57293200       0.51929100      -2.82673000
H        2.98460600      -0.03436800      -2.10068800
H       -0.99419400      -0.23580400       0.29410100
S        3.13499700      -0.77100900       0.56090000
O        3.40593600       0.58346600       1.07015500
O        3.54039600      -0.94311500      -0.86015500
O        3.53740200      -1.87634000       1.42722300
O        1.50692000      -0.91378400       0.55015800
H        1.14624000      -0.20455100      -0.04864100
S       -2.43982400      -1.78793700       0.72216100
O       -1.61188600      -2.31045000       1.82156000
O       -1.40461500      -0.96783600      -0.24364800
O       -2.98942800      -2.78863800      -0.19211400
O       -3.43615600      -0.78167200       1.16834100
H       -3.08243700       0.62164200       1.98320400
S       -1.59668400       2.04796300       1.43918200
O       -2.76426300       1.48220500       2.37504600
O       -0.56783300       0.95292200       1.37792300
O       -2.16945500       2.28009700       0.10117400
O       -1.09902100       3.23386700       2.12850300
N       -3.02619100       0.72709900      -2.06886600
C       -4.38625900       0.82151700      -1.47286100
C       -2.69560300       1.93397900      -2.87361800
C       -2.85001700      -0.52718000      -2.84940400
H       -1.67943000       1.83665300      -3.26013100
H       -3.41406100       2.00792700      -3.69288100
H       -2.76307500       2.80171200      -2.21882100
H       -4.53941700      -0.03581100      -0.81737800
H       -4.43326000       1.73602200      -0.88297800
H       -5.11798000       0.83646400      -2.28331200
H       -3.11476800      -1.37301400      -2.21380300
H       -3.50486600      -0.47913700      -3.72221200
H       -1.80436600      -0.60705900      -3.15070000
H       -2.36763000       0.70936600      -1.27533800
N        0.68347300      -3.20210000      -1.33147900
C        1.93290300      -3.40197200      -2.11588600
C        0.77752600      -3.82974100       0.01500900
C       -0.50911000      -3.67692700      -2.08341600
H       -0.09446600      -3.53963400       0.60273500
H        0.81064900      -4.91308200      -0.11894400
H        1.68632700      -3.47550200       0.50166100
H        1.81138600      -2.90969300      -3.07965600
H        2.76214400      -2.94157300      -1.57845700
H        2.08925400      -4.47566500      -2.23890200
H       -0.56508700      -3.10930100      -3.01171200
H       -0.38089000      -4.74129100      -2.29167800
H       -1.40209100      -3.50803600      -1.47897600
H        0.56202100      -2.18682100      -1.20671200
N        0.37475400      -0.64678800       3.45711500
C       -0.85816100      -0.54067000       4.28187000
C        0.99256600      -1.99459500       3.56405900
C        1.33979200       0.43857900       3.77345000
H        1.88726400      -2.02752700       2.94050700
H        1.25102500      -2.17016600       4.61078300
H        0.26011900      -2.72362300       3.22006700
H       -1.31178300       0.43551600       4.11072000
H       -1.54683000      -1.32162800       3.96138800
H       -0.58333900      -0.66036800       5.33197700
H        0.82836200       1.39330100       3.64868500
H        1.67748700       0.31395600       4.80443200
H        2.18126400       0.37890500       3.08165500
H        0.08641100      -0.49047500       2.47893600
N        1.83290000       3.14697300      -0.17377300
C        2.02605100       3.43191400       1.27208500
C        3.12675100       3.14741100      -0.90719500
C        0.83901700       4.05628000      -0.80287100
H        2.94189200       2.88543100      -1.94903400
H        3.56798200       4.14380400      -0.83346700
H        3.77267200       2.39760600      -0.44909800
H        1.05388600       3.40498400       1.76600400
H        2.69022900       2.66781600       1.67441800
H        2.47258100       4.42456100       1.36825200
H       -0.09320700       3.99902400      -0.24044800
H        1.23361100       5.07450100      -0.78481300
H        0.67465600       3.72298100      -1.82889300
H        1.43869600       2.19247700      -0.29544900
80
4sa4tma-12
S       -3.04486400       0.94673900       0.49981200
O       -3.60648400      -0.27609200      -0.13503900
O       -2.98672800       2.08288700      -0.42687700
O       -1.48037900       0.54782100       0.81654900
O       -3.55713400       1.24803500       1.83522800
H       -1.13072600      -0.06822300       0.11433700
H       -2.93194900      -1.74541700       0.18251100
S        2.31949400       0.52758900       1.94916700
O        3.39901500       1.03221000       1.06229800
O        2.77068100      -0.45138100       2.93698100
O        1.45118000       1.59974000       2.46191000
O        1.36192700      -0.37852100       0.97906600
H        1.03034500       0.19393200       0.22833700
H        3.21136600       1.62797400      -0.46628000
S        1.79028600       1.26414400      -2.04291700
O        0.73102800       1.24693100      -0.96523800
O        3.04443900       2.00350600      -1.37641400
O        2.19435400      -0.10837600      -2.37685600
O        1.40334100       2.11382800      -3.16402000
H        0.21634200       2.58860900       0.08480600
S       -1.12778300      -2.72774200      -0.51981900
O       -1.57852600      -3.40088400      -1.73710900
O       -2.38329000      -2.53051800       0.46486200
O       -0.15706800      -3.45520200       0.29897300
O       -0.66956600      -1.32206100      -0.83090000
N        0.08202700       3.59453100       0.30810100
C       -0.56234700       4.17556200      -0.89947600
C       -0.76905900       3.72466200       1.51881100
C        1.43999500       4.15828500       0.53364700
H       -0.30176200       3.15130000       2.31823200
H       -0.83022300       4.78294200       1.78313500
H       -1.76077500       3.33475500       1.29614500
H        0.07226800       3.96481800      -1.76222800
H       -1.53561200       3.69995000      -1.02130100
H       -0.67144500       5.25268200      -0.75493700
H        2.04352100       3.98257000      -0.35704900
H        1.34263800       5.22883400       0.72694200
H        1.88344000       3.64365000       1.38627700
N       -1.70720500      -0.35467600      -3.17686700
C       -3.05947600      -0.96948500      -3.26075700
C       -1.77610200       1.12219100      -3.33840200
C       -0.75083700      -0.98492700      -4.12328100
H       -0.76714600       1.53428200      -3.30924300
H       -2.24039800       1.33755900      -4.30388900
H       -2.37590100       1.52929300      -2.52228300
H       -2.96205700      -2.03899900      -3.07283700
H       -3.68729900      -0.51744400      -2.49194200
H       -3.46483200      -0.78168900      -4.25752300
H       -0.73839400      -2.05706700      -3.92297400
H       -1.08121200      -0.78602200      -5.14514200
H        0.24056300      -0.56313400      -3.95154700
H       -1.33315100      -0.58090900      -2.22779600
N       -1.31387800      -0.89013200       3.22318500
C       -0.25844500      -1.93061900       3.35992300
C       -1.07802200       0.28322100       4.10643700
C       -2.67245600      -1.46212200       3.42845600
H       -1.88357900       0.99804400       3.93160900
H       -1.07987900      -0.05464900       5.14495800
H       -0.11705600       0.72871400       3.84265000
H       -0.38237800      -2.65543700       2.55319600
H        0.72317700      -1.46153100       3.28948700
H       -0.37828800      -2.40922700       4.33465600
H       -2.78957600      -2.31527700       2.76153000
H       -2.75980000      -1.77232100       4.47198300
H       -3.40795500      -0.69352600       3.18738000
H       -1.28201700      -0.51015600       2.25784000
N        2.91032600      -2.38613000      -0.28636300
C        4.19837900      -1.67320800      -0.50918700
C        2.95359900      -3.22009100       0.94520300
C        2.50811000      -3.16703900      -1.48558900
H        1.97453300      -3.68009900       1.07298000
H        3.72936100      -3.97913500       0.82359600
H        3.17753800      -2.56664500       1.79054800
H        4.09085500      -1.04883200      -1.39564400
H        4.40708100      -1.04468000       0.35648800
H        4.98304600      -2.42029000      -0.64659700
H        2.37109400      -2.46726200      -2.30935300
H        3.30187900      -3.88281400      -1.71104400
H        1.57657700      -3.68538300      -1.26258800
H        2.19039900      -1.66450900      -0.10574900
80
4sa4tma-6
S        0.15122200      -2.34636000       1.60929300
O        0.72266100      -1.49323700       0.49801900
O       -1.15531200      -1.81199900       2.03168600
O        1.18311000      -2.16679900       2.80763900
O        0.16982800      -3.76484000       1.27553200
H        1.52711300      -1.22460700       2.83157000
H        0.07113600      -1.60213100      -1.01470700
S        2.16123100       1.29282400       1.80932200
O        3.20451300       1.00804600       0.81152300
O        2.09851900       0.26838500       2.88445400
O        2.11404400       2.66448100       2.30901500
O        0.73990700       1.17303100       1.00903300
H        0.65591000       0.27211200       0.61054100
S       -2.63358000       1.38909600      -0.74182900
O       -2.04397500       2.71481800      -0.49307900
O       -1.77621600       0.29846700      -0.17625200
O       -4.03811000       1.25160300      -0.33616700
O       -2.65723400       1.15987400      -2.32471100
H       -1.77323800       0.85051800      -2.67336000
S        0.60107700      -0.51063100      -2.77815000
O       -0.21133300      -1.65396600      -1.96719300
O        1.48947600      -1.21060500      -3.70306100
O       -0.44523900       0.29863200      -3.44171900
O        1.32730600       0.24301200      -1.72308500
N       -3.05377600      -2.11434400      -0.71712500
C       -3.68948600      -1.79051200      -2.02269300
C       -2.39745700      -3.44661600      -0.76410700
C       -4.02262500      -2.02259000       0.40508300
H       -1.89613600      -3.64265700       0.18281900
H       -3.16832400      -4.19874900      -0.94753000
H       -1.66728800      -3.44450600      -1.57221200
H       -4.17959900      -0.82074200      -1.94803500
H       -2.90761800      -1.74681800      -2.78082600
H       -4.41281500      -2.57435400      -2.25844700
H       -4.41655000      -1.00504200       0.42645600
H       -4.82391100      -2.74620800       0.23905900
H       -3.48313900      -2.24717300       1.32560000
H       -2.35079200      -1.36066000      -0.53422500
N        3.35127500      -1.70683800      -0.59578200
C        2.87612500      -2.96927900      -1.22688900
C        4.24272700      -0.93748900      -1.50160600
C        3.98602900      -1.97130800       0.72297000
H        4.47512200       0.00957400      -1.01609200
H        5.14946700      -1.52111400      -1.67490100
H        3.70920700      -0.76486400      -2.43643900
H        2.15282500      -3.43852200      -0.55906100
H        2.41156000      -2.72890700      -2.18413200
H        3.73935100      -3.62163700      -1.37540000
H        3.26790100      -2.49156300       1.35685000
H        4.86890200      -2.59311800       0.56021000
H        4.25004300      -1.01598800       1.17363600
H        2.52154900      -1.11690100      -0.42597800
N       -1.63093100       1.08255900       2.80552800
C       -0.91587400       0.55290700       3.99882900
C       -1.45597500       2.55688800       2.68303700
C       -3.06503500       0.69459000       2.82987000
H       -1.89449600       2.88077500       1.73842700
H       -1.95370900       3.02933900       3.53262100
H       -0.38867000       2.78044400       2.69152400
H       -1.05081400      -0.52724500       4.02765700
H        0.14502300       0.78579900       3.91049000
H       -1.34183000       1.02671400       4.88580400
H       -3.11279300      -0.39314800       2.86205500
H       -3.52296400       1.12385900       3.72352700
H       -3.55656800       1.06495300       1.92902200
H       -1.22269000       0.65388000       1.95836400
N        1.04499400       3.08226300      -1.35839800
C        0.76592700       4.09470900      -0.30373600
C        2.49806200       2.99916200      -1.66498400
C        0.24500400       3.34626200      -2.58573100
H        2.63835100       2.25091800      -2.44338300
H        2.83472700       3.98253600      -1.99995900
H        3.02674200       2.68510700      -0.76448500
H       -0.29603800       4.04270200      -0.07004400
H        1.36160700       3.86122100       0.57941900
H        1.02930600       5.07782200      -0.70035900
H       -0.80323900       3.42320900      -2.29834900
H        0.59776500       4.28114900      -3.02665300
H        0.37648600       2.51430700      -3.27701700
H        0.77288100       2.15376700      -0.99512800
