dimer_pw91_qh_oxalic.log
 OpenBabel08081914533D
Gaussian opt/gaussian/g16/sse4/g16/g16 # opt freq pw91pw91 6-31++g(d,p) G09Defau
 16 14  0  0  0  0  0  0  0  0999 V2000
    3.4213   -0.0914   -0.0000 C   0  0  0  0  0  0  0  0  0  0  0  0
    1.8711   -0.0816    0.0000 C   0  0  0  0  0  0  0  0  0  0  0  0
    1.2793    1.0210    0.0000 O   0  0  0  0  0  0  0  0  0  0  0  0
    4.0839   -1.1043    0.0001 O   0  0  0  0  0  0  0  0  0  0  0  0
    1.3158   -1.2603   -0.0000 O   0  0  0  0  0  0  0  0  0  0  0  0
    0.2905   -1.1739   -0.0000 H   0  0  0  0  0  0  0  0  0  0  0  0
    3.9311    1.1560   -0.0000 O   0  0  0  0  0  0  0  0  0  0  0  0
    3.1737    1.7878   -0.0001 H   0  0  0  0  0  0  0  0  0  0  0  0
   -1.8711    0.0816   -0.0000 C   0  0  0  0  0  0  0  0  0  0  0  0
   -3.4213    0.0914   -0.0000 C   0  0  0  0  0  0  0  0  0  0  0  0
   -4.0839    1.1043    0.0000 O   0  0  0  0  0  0  0  0  0  0  0  0
   -1.2793   -1.0210   -0.0000 O   0  0  0  0  0  0  0  0  0  0  0  0
   -3.9311   -1.1560   -0.0000 O   0  0  0  0  0  0  0  0  0  0  0  0
   -3.1737   -1.7878   -0.0000 H   0  0  0  0  0  0  0  0  0  0  0  0
   -1.3158    1.2603    0.0000 O   0  0  0  0  0  0  0  0  0  0  0  0
   -0.2905    1.1739    0.0000 H   0  0  0  0  0  0  0  0  0  0  0  0
  1  2  1  0  0  0  0
  1  4  2  0  0  0  0
  2  3  2  0  0  0  0
  5  6  1  0  0  0  0
  5  2  1  0  0  0  0
  7  1  1  0  0  0  0
  8  7  1  0  0  0  0
  9 15  1  0  0  0  0
 10  9  1  0  0  0  0
 10 11  2  0  0  0  0
 12  9  2  0  0  0  0
 13 10  1  0  0  0  0
 14 13  1  0  0  0  0
 15 16  1  0  0  0  0
M  END
$$$$
