dimer_wb97xd_qh_adipic.log
 OpenBabel08081914533D
Gaussian groups/kemi/kmacke/programs/G09D/g09/g09 # opt freq wb97xd 6-31++g(d,p)
 40 38  0  0  0  0  0  0  0  0999 V2000
   -3.3899   -2.6638   -0.8668 H   0  0  0  0  0  0  0  0  0  0  0  0
   -3.0577   -1.6673   -0.5561 C   0  0  0  0  0  0  0  0  0  0  0  0
   -3.0374   -1.0670   -1.4726 H   0  0  0  0  0  0  0  0  0  0  0  0
   -1.6195   -1.8009   -0.1317 C   0  0  0  0  0  0  0  0  0  0  0  0
   -4.0272   -1.0899    0.4724 C   0  0  0  0  0  0  0  0  0  0  0  0
   -5.0307   -1.1603    0.0348 H   0  0  0  0  0  0  0  0  0  0  0  0
   -4.0315   -1.7261    1.3642 H   0  0  0  0  0  0  0  0  0  0  0  0
   -3.7866    0.3577    0.9187 C   0  0  0  0  0  0  0  0  0  0  0  0
   -4.6361    0.6617    1.5374 H   0  0  0  0  0  0  0  0  0  0  0  0
   -2.9060    0.3987    1.5654 H   0  0  0  0  0  0  0  0  0  0  0  0
   -3.6319    1.3806   -0.2388 C   0  0  0  0  0  0  0  0  0  0  0  0
   -4.1440    2.3112    0.0130 H   0  0  0  0  0  0  0  0  0  0  0  0
   -4.0571    0.9922   -1.1680 H   0  0  0  0  0  0  0  0  0  0  0  0
   -1.1684   -1.3924    0.9374 O   0  0  0  0  0  0  0  0  0  0  0  0
   -0.8931   -2.4099   -1.0418 O   0  0  0  0  0  0  0  0  0  0  0  0
    0.0638   -2.4521   -0.7618 H   0  0  0  0  0  0  0  0  0  0  0  0
   -2.1760    1.6947   -0.4550 C   0  0  0  0  0  0  0  0  0  0  0  0
   -1.4419    1.0487   -1.2017 O   0  0  0  0  0  0  0  0  0  0  0  0
   -1.7543    2.6940    0.2882 O   0  0  0  0  0  0  0  0  0  0  0  0
   -0.7616    2.7792    0.2316 H   0  0  0  0  0  0  0  0  0  0  0  0
    4.1241   -2.3314    0.3076 H   0  0  0  0  0  0  0  0  0  0  0  0
    3.6135   -1.3776    0.4606 C   0  0  0  0  0  0  0  0  0  0  0  0
    3.9357   -0.9677    1.4217 H   0  0  0  0  0  0  0  0  0  0  0  0
    2.1405   -1.6930    0.4839 C   0  0  0  0  0  0  0  0  0  0  0  0
    3.9503   -0.4227   -0.7114 C   0  0  0  0  0  0  0  0  0  0  0  0
    4.9068   -0.7298   -1.1445 H   0  0  0  0  0  0  0  0  0  0  0  0
    3.2015   -0.5500   -1.4965 H   0  0  0  0  0  0  0  0  0  0  0  0
    4.0788    1.0574   -0.3243 C   0  0  0  0  0  0  0  0  0  0  0  0
    4.1885    1.6466   -1.2415 H   0  0  0  0  0  0  0  0  0  0  0  0
    5.0147    1.1861    0.2329 H   0  0  0  0  0  0  0  0  0  0  0  0
    2.9810    1.6736    0.5502 C   0  0  0  0  0  0  0  0  0  0  0  0
    3.2869    2.6665    0.8874 H   0  0  0  0  0  0  0  0  0  0  0  0
    2.8352    1.0764    1.4595 H   0  0  0  0  0  0  0  0  0  0  0  0
    1.6397   -2.4182   -0.3695 O   0  0  0  0  0  0  0  0  0  0  0  0
    1.4483   -1.1232    1.4495 O   0  0  0  0  0  0  0  0  0  0  0  0
    0.4732   -1.2890    1.3133 H   0  0  0  0  0  0  0  0  0  0  0  0
    1.5983    1.8370   -0.0223 C   0  0  0  0  0  0  0  0  0  0  0  0
    0.8702    2.7576    0.3369 O   0  0  0  0  0  0  0  0  0  0  0  0
    1.2164    0.9067   -0.8745 O   0  0  0  0  0  0  0  0  0  0  0  0
    0.2491    1.0144   -1.0905 H   0  0  0  0  0  0  0  0  0  0  0  0
  1  2  1  0  0  0  0
  2  4  1  0  0  0  0
  2  5  1  0  0  0  0
  3  2  1  0  0  0  0
  4 14  2  0  0  0  0
  5  8  1  0  0  0  0
  5  7  1  0  0  0  0
  6  5  1  0  0  0  0
  8  9  1  0  0  0  0
  8 10  1  0  0  0  0
 11 12  1  0  0  0  0
 11  8  1  0  0  0  0
 13 11  1  0  0  0  0
 15 16  1  0  0  0  0
 15  4  1  0  0  0  0
 17 11  1  0  0  0  0
 17 19  1  0  0  0  0
 18 17  2  0  0  0  0
 20 19  1  0  0  0  0
 21 22  1  0  0  0  0
 22 24  1  0  0  0  0
 22 23  1  0  0  0  0
 24 35  1  0  0  0  0
 25 28  1  0  0  0  0
 25 22  1  0  0  0  0
 26 25  1  0  0  0  0
 27 25  1  0  0  0  0
 28 30  1  0  0  0  0
 28 31  1  0  0  0  0
 29 28  1  0  0  0  0
 31 32  1  0  0  0  0
 31 33  1  0  0  0  0
 34 24  2  0  0  0  0
 36 35  1  0  0  0  0
 37 38  2  0  0  0  0
 37 31  1  0  0  0  0
 39 37  1  0  0  0  0
 40 39  1  0  0  0  0
M  END
$$$$
