dimer_pw91_qh_malonic.log
 OpenBabel08081914533D
Gaussian software/kemi/g16/avx2/g16/g16 # opt freq pw91pw91 6-31++g(d,p) G09Defa
 22 20  0  0  0  0  0  0  0  0999 V2000
   -3.2865    0.7816    0.4898 C   0  0  0  0  0  0  0  0  0  0  0  0
   -3.3285    0.8705    1.5914 H   0  0  0  0  0  0  0  0  0  0  0  0
   -3.6444    1.7400    0.0924 H   0  0  0  0  0  0  0  0  0  0  0  0
   -4.2950   -0.3207    0.1076 C   0  0  0  0  0  0  0  0  0  0  0  0
   -1.8373    0.5724    0.1247 C   0  0  0  0  0  0  0  0  0  0  0  0
   -5.4811   -0.0653    0.0143 O   0  0  0  0  0  0  0  0  0  0  0  0
   -1.3446   -0.5818    0.0222 O   0  0  0  0  0  0  0  0  0  0  0  0
   -3.8079   -1.5658   -0.0592 O   0  0  0  0  0  0  0  0  0  0  0  0
   -2.8136   -1.5264    0.0016 H   0  0  0  0  0  0  0  0  0  0  0  0
   -1.1513    1.6743   -0.0487 O   0  0  0  0  0  0  0  0  0  0  0  0
   -0.1541    1.4680   -0.2708 H   0  0  0  0  0  0  0  0  0  0  0  0
    3.3160   -0.0655   -0.9172 C   0  0  0  0  0  0  0  0  0  0  0  0
    3.6947    0.8050   -1.4727 H   0  0  0  0  0  0  0  0  0  0  0  0
    3.5094   -0.9703   -1.5131 H   0  0  0  0  0  0  0  0  0  0  0  0
    4.0825   -0.1750    0.3951 C   0  0  0  0  0  0  0  0  0  0  0  0
    1.8346    0.1028   -0.6673 C   0  0  0  0  0  0  0  0  0  0  0  0
    3.6019   -0.1137    1.5127 O   0  0  0  0  0  0  0  0  0  0  0  0
    1.3117    1.2301   -0.6031 O   0  0  0  0  0  0  0  0  0  0  0  0
    5.4099   -0.3489    0.1506 O   0  0  0  0  0  0  0  0  0  0  0  0
    5.8490   -0.4053    1.0263 H   0  0  0  0  0  0  0  0  0  0  0  0
    1.1862   -1.0402   -0.5302 O   0  0  0  0  0  0  0  0  0  0  0  0
    0.2027   -0.8650   -0.3185 H   0  0  0  0  0  0  0  0  0  0  0  0
  1  2  1  0  0  0  0
  3  1  1  0  0  0  0
  4  1  1  0  0  0  0
  5  1  1  0  0  0  0
  6  4  2  0  0  0  0
  7  5  2  0  0  0  0
  8  9  1  0  0  0  0
  8  4  1  0  0  0  0
 10  5  1  0  0  0  0
 11 10  1  0  0  0  0
 12 16  1  0  0  0  0
 12 15  1  0  0  0  0
 13 12  1  0  0  0  0
 14 12  1  0  0  0  0
 15 17  2  0  0  0  0
 16 18  2  0  0  0  0
 16 21  1  0  0  0  0
 19 15  1  0  0  0  0
 19 20  1  0  0  0  0
 21 22  1  0  0  0  0
M  END
$$$$
