dimer_m062x_h_suberic.log
 OpenBabel08081914533D
Gaussian software/kemi/g16/avx2/g16/g16 # opt freq m062x 6-31++g(d,p) G09Default
 52 50  0  0  0  0  0  0  0  0999 V2000
    1.7007    2.6154    0.8190 C   0  0  0  0  0  0  0  0  0  0  0  0
    3.0491    2.3666    1.4459 C   0  0  0  0  0  0  0  0  0  0  0  0
    3.4448    3.3487    1.7335 H   0  0  0  0  0  0  0  0  0  0  0  0
    2.8935    1.8047    2.3715 H   0  0  0  0  0  0  0  0  0  0  0  0
    4.0121    1.6472    0.5041 C   0  0  0  0  0  0  0  0  0  0  0  0
    4.9769    1.5421    1.0151 H   0  0  0  0  0  0  0  0  0  0  0  0
    4.1828    2.2642   -0.3849 H   0  0  0  0  0  0  0  0  0  0  0  0
    3.5081    0.2672    0.0759 C   0  0  0  0  0  0  0  0  0  0  0  0
    3.1640   -0.2778    0.9669 H   0  0  0  0  0  0  0  0  0  0  0  0
    2.6387    0.3862   -0.5835 H   0  0  0  0  0  0  0  0  0  0  0  0
    4.5904   -0.5437   -0.6371 C   0  0  0  0  0  0  0  0  0  0  0  0
    5.4028   -0.7502    0.0739 H   0  0  0  0  0  0  0  0  0  0  0  0
    5.0279    0.0645   -1.4389 H   0  0  0  0  0  0  0  0  0  0  0  0
    4.0962   -1.8641   -1.2346 C   0  0  0  0  0  0  0  0  0  0  0  0
    3.4143   -1.6716   -2.0701 H   0  0  0  0  0  0  0  0  0  0  0  0
    4.9519   -2.4128   -1.6403 H   0  0  0  0  0  0  0  0  0  0  0  0
    3.3720   -2.7534   -0.2160 C   0  0  0  0  0  0  0  0  0  0  0  0
    3.8359   -2.7072    0.7737 H   0  0  0  0  0  0  0  0  0  0  0  0
    3.4062   -3.8002   -0.5420 H   0  0  0  0  0  0  0  0  0  0  0  0
    1.9016   -2.4366   -0.0896 C   0  0  0  0  0  0  0  0  0  0  0  0
    1.1987   -2.2012   -1.0678 O   0  0  0  0  0  0  0  0  0  0  0  0
    1.5591    2.7789   -0.3906 O   0  0  0  0  0  0  0  0  0  0  0  0
    1.4363   -2.4845    1.1402 O   0  0  0  0  0  0  0  0  0  0  0  0
    0.4492   -2.3213    1.1386 H   0  0  0  0  0  0  0  0  0  0  0  0
    0.7100    2.6535    1.6787 O   0  0  0  0  0  0  0  0  0  0  0  0
   -0.1643    2.7784    1.2000 H   0  0  0  0  0  0  0  0  0  0  0  0
   -1.7012    2.6153   -0.8189 C   0  0  0  0  0  0  0  0  0  0  0  0
   -3.0496    2.3663   -1.4459 C   0  0  0  0  0  0  0  0  0  0  0  0
   -3.4454    3.3484   -1.7334 H   0  0  0  0  0  0  0  0  0  0  0  0
   -2.8939    1.8045   -2.3715 H   0  0  0  0  0  0  0  0  0  0  0  0
   -4.0125    1.6468   -0.5041 C   0  0  0  0  0  0  0  0  0  0  0  0
   -4.9773    1.5415   -1.0151 H   0  0  0  0  0  0  0  0  0  0  0  0
   -4.1833    2.2637    0.3849 H   0  0  0  0  0  0  0  0  0  0  0  0
   -3.5082    0.2669   -0.0759 C   0  0  0  0  0  0  0  0  0  0  0  0
   -3.1639   -0.2781   -0.9670 H   0  0  0  0  0  0  0  0  0  0  0  0
   -2.6387    0.3860    0.5835 H   0  0  0  0  0  0  0  0  0  0  0  0
   -4.5902   -0.5443    0.6371 C   0  0  0  0  0  0  0  0  0  0  0  0
   -5.4027   -0.7510   -0.0739 H   0  0  0  0  0  0  0  0  0  0  0  0
   -5.0279    0.0639    1.4389 H   0  0  0  0  0  0  0  0  0  0  0  0
   -4.0958   -1.8645    1.2346 C   0  0  0  0  0  0  0  0  0  0  0  0
   -3.4139   -1.6719    2.0701 H   0  0  0  0  0  0  0  0  0  0  0  0
   -4.9514   -2.4134    1.6403 H   0  0  0  0  0  0  0  0  0  0  0  0
   -3.3715   -2.7538    0.2160 C   0  0  0  0  0  0  0  0  0  0  0  0
   -3.8354   -2.7077   -0.7737 H   0  0  0  0  0  0  0  0  0  0  0  0
   -3.4056   -3.8006    0.5420 H   0  0  0  0  0  0  0  0  0  0  0  0
   -1.9012   -2.4368    0.0896 C   0  0  0  0  0  0  0  0  0  0  0  0
   -1.1983   -2.2013    1.0678 O   0  0  0  0  0  0  0  0  0  0  0  0
   -1.5596    2.7787    0.3906 O   0  0  0  0  0  0  0  0  0  0  0  0
   -1.4358   -2.4847   -1.1402 O   0  0  0  0  0  0  0  0  0  0  0  0
   -0.4487   -2.3215   -1.1386 H   0  0  0  0  0  0  0  0  0  0  0  0
   -0.7105    2.6535   -1.6786 O   0  0  0  0  0  0  0  0  0  0  0  0
    0.1638    2.7785   -1.2000 H   0  0  0  0  0  0  0  0  0  0  0  0
  1  2  1  0  0  0  0
  1 25  1  0  0  0  0
  2  3  1  0  0  0  0
  2  4  1  0  0  0  0
  5  6  1  0  0  0  0
  5  2  1  0  0  0  0
  7  5  1  0  0  0  0
  8  5  1  0  0  0  0
  8  9  1  0  0  0  0
 10  8  1  0  0  0  0
 11 12  1  0  0  0  0
 11  8  1  0  0  0  0
 13 11  1  0  0  0  0
 14 11  1  0  0  0  0
 14 17  1  0  0  0  0
 15 14  1  0  0  0  0
 16 14  1  0  0  0  0
 17 20  1  0  0  0  0
 17 18  1  0  0  0  0
 19 17  1  0  0  0  0
 20 23  1  0  0  0  0
 21 20  2  0  0  0  0
 22  1  2  0  0  0  0
 24 23  1  0  0  0  0
 26 25  1  0  0  0  0
 27 48  2  0  0  0  0
 28 27  1  0  0  0  0
 28 31  1  0  0  0  0
 29 28  1  0  0  0  0
 30 28  1  0  0  0  0
 31 34  1  0  0  0  0
 31 33  1  0  0  0  0
 32 31  1  0  0  0  0
 34 36  1  0  0  0  0
 34 37  1  0  0  0  0
 35 34  1  0  0  0  0
 37 40  1  0  0  0  0
 37 39  1  0  0  0  0
 38 37  1  0  0  0  0
 40 42  1  0  0  0  0
 40 41  1  0  0  0  0
 43 45  1  0  0  0  0
 43 40  1  0  0  0  0
 44 43  1  0  0  0  0
 46 43  1  0  0  0  0
 46 47  2  0  0  0  0
 49 50  1  0  0  0  0
 49 46  1  0  0  0  0
 51 52  1  0  0  0  0
 51 27  1  0  0  0  0
M  END
$$$$
