dimer_pw91_qh_pentanoic.log
 OpenBabel08081914533D
Gaussian opt/gaussian/g09/g09 # opt freq pw91pw91/6-31++g(d,p)
 34 32  0  0  0  0  0  0  0  0999 V2000
    1.8230   -0.5236   -0.0802 C   0  0  0  0  0  0  0  0  0  0  0  0
    0.9549   -1.5254   -0.0835 O   0  0  0  0  0  0  0  0  0  0  0  0
   -0.0129   -1.1661   -0.0851 H   0  0  0  0  0  0  0  0  0  0  0  0
    1.4951    0.6803   -0.0771 O   0  0  0  0  0  0  0  0  0  0  0  0
    3.2664   -0.9738   -0.0899 C   0  0  0  0  0  0  0  0  0  0  0  0
   -1.8230    0.5235   -0.0812 C   0  0  0  0  0  0  0  0  0  0  0  0
   -0.9550    1.5254   -0.0802 O   0  0  0  0  0  0  0  0  0  0  0  0
    0.0127    1.1662   -0.0817 H   0  0  0  0  0  0  0  0  0  0  0  0
   -1.4949   -0.6803   -0.0808 O   0  0  0  0  0  0  0  0  0  0  0  0
   -3.2664    0.9735   -0.0931 C   0  0  0  0  0  0  0  0  0  0  0  0
    3.4246   -1.5185   -1.0390 H   0  0  0  0  0  0  0  0  0  0  0  0
    4.2880    0.1543    0.0701 C   0  0  0  0  0  0  0  0  0  0  0  0
    3.3792   -1.7373    0.6998 H   0  0  0  0  0  0  0  0  0  0  0  0
    4.1314    0.9044   -0.7237 H   0  0  0  0  0  0  0  0  0  0  0  0
    5.7358   -0.3539    0.0305 C   0  0  0  0  0  0  0  0  0  0  0  0
    4.1040    0.6813    1.0223 H   0  0  0  0  0  0  0  0  0  0  0  0
   -3.3798    1.7410    0.6925 H   0  0  0  0  0  0  0  0  0  0  0  0
   -3.4244    1.5131   -1.0452 H   0  0  0  0  0  0  0  0  0  0  0  0
   -4.2879   -0.1540    0.0717 C   0  0  0  0  0  0  0  0  0  0  0  0
   -5.7359    0.3537    0.0285 C   0  0  0  0  0  0  0  0  0  0  0  0
   -4.1305   -0.9080   -0.7181 H   0  0  0  0  0  0  0  0  0  0  0  0
   -4.1046   -0.6762    1.0268 H   0  0  0  0  0  0  0  0  0  0  0  0
   -5.9129    0.8724   -0.9316 H   0  0  0  0  0  0  0  0  0  0  0  0
   -6.7672   -0.7673    0.2032 C   0  0  0  0  0  0  0  0  0  0  0  0
   -5.8814    1.1147    0.8170 H   0  0  0  0  0  0  0  0  0  0  0  0
    5.9136   -0.8775   -0.9269 H   0  0  0  0  0  0  0  0  0  0  0  0
    5.8805   -1.1111    0.8229 H   0  0  0  0  0  0  0  0  0  0  0  0
    6.7674    0.7675    0.2006 C   0  0  0  0  0  0  0  0  0  0  0  0
    6.6714    1.5214   -0.5978 H   0  0  0  0  0  0  0  0  0  0  0  0
    7.7962    0.3768    0.1699 H   0  0  0  0  0  0  0  0  0  0  0  0
    6.6348    1.2866    1.1639 H   0  0  0  0  0  0  0  0  0  0  0  0
   -6.6351   -1.2818    1.1689 H   0  0  0  0  0  0  0  0  0  0  0  0
   -6.6706   -1.5248   -0.5917 H   0  0  0  0  0  0  0  0  0  0  0  0
   -7.7961   -0.3769    0.1701 H   0  0  0  0  0  0  0  0  0  0  0  0
  1  4  2  0  0  0  0
  2  1  1  0  0  0  0
  3  2  1  0  0  0  0
  5  1  1  0  0  0  0
  5 12  1  0  0  0  0
  5 13  1  0  0  0  0
  6  9  2  0  0  0  0
  6  7  1  0  0  0  0
  8  7  1  0  0  0  0
 10  6  1  0  0  0  0
 10 19  1  0  0  0  0
 10 17  1  0  0  0  0
 11  5  1  0  0  0  0
 12 16  1  0  0  0  0
 14 12  1  0  0  0  0
 15 12  1  0  0  0  0
 15 28  1  0  0  0  0
 15 27  1  0  0  0  0
 18 10  1  0  0  0  0
 19 22  1  0  0  0  0
 20 19  1  0  0  0  0
 20 24  1  0  0  0  0
 20 25  1  0  0  0  0
 21 19  1  0  0  0  0
 23 20  1  0  0  0  0
 24 32  1  0  0  0  0
 26 15  1  0  0  0  0
 28 31  1  0  0  0  0
 29 28  1  0  0  0  0
 30 28  1  0  0  0  0
 33 24  1  0  0  0  0
 34 24  1  0  0  0  0
M  END
$$$$
