dimer_wb97xd_h_hexanoic.log
 OpenBabel08081914533D
Gaussian opt/gaussian/g09/g09 # opt freq wb97xd/6-31++g(d,p)
 40 38  0  0  0  0  0  0  0  0999 V2000
   -1.9227   -0.1440   -0.1959 C   0  0  0  0  0  0  0  0  0  0  0  0
   -1.1449   -1.2031   -0.2828 O   0  0  0  0  0  0  0  0  0  0  0  0
   -0.1850   -0.9392   -0.2120 H   0  0  0  0  0  0  0  0  0  0  0  0
   -1.4967    0.9975   -0.0425 O   0  0  0  0  0  0  0  0  0  0  0  0
   -3.3887   -0.4724   -0.3044 C   0  0  0  0  0  0  0  0  0  0  0  0
    1.8315    0.6510    0.0504 C   0  0  0  0  0  0  0  0  0  0  0  0
    1.0521    1.7085    0.1415 O   0  0  0  0  0  0  0  0  0  0  0  0
    0.0923    1.4430    0.0751 H   0  0  0  0  0  0  0  0  0  0  0  0
    1.4075   -0.4919   -0.0979 O   0  0  0  0  0  0  0  0  0  0  0  0
    3.2968    0.9838    0.1499 C   0  0  0  0  0  0  0  0  0  0  0  0
   -3.6038   -1.2196    0.4675 H   0  0  0  0  0  0  0  0  0  0  0  0
   -4.3058    0.7420   -0.1947 C   0  0  0  0  0  0  0  0  0  0  0  0
   -3.5325   -0.9890   -1.2620 H   0  0  0  0  0  0  0  0  0  0  0  0
   -4.1854    1.1983    0.7948 H   0  0  0  0  0  0  0  0  0  0  0  0
   -5.7804    0.4075   -0.4351 C   0  0  0  0  0  0  0  0  0  0  0  0
   -3.9800    1.4967   -0.9174 H   0  0  0  0  0  0  0  0  0  0  0  0
    3.5077    1.7499   -0.6060 H   0  0  0  0  0  0  0  0  0  0  0  0
    3.4470    1.4788    1.1175 H   0  0  0  0  0  0  0  0  0  0  0  0
    4.2255   -0.2149   -0.0030 C   0  0  0  0  0  0  0  0  0  0  0  0
    5.6968    0.1801    0.1184 C   0  0  0  0  0  0  0  0  0  0  0  0
    3.9770   -0.9664    0.7547 H   0  0  0  0  0  0  0  0  0  0  0  0
    4.0477   -0.6920   -0.9736 H   0  0  0  0  0  0  0  0  0  0  0  0
    5.8680    0.6589    1.0931 H   0  0  0  0  0  0  0  0  0  0  0  0
    6.6519   -1.0038   -0.0334 C   0  0  0  0  0  0  0  0  0  0  0  0
    5.9379    0.9374   -0.6408 H   0  0  0  0  0  0  0  0  0  0  0  0
   -5.9016   -0.0149   -1.4429 H   0  0  0  0  0  0  0  0  0  0  0  0
   -6.3532    1.3434   -0.4257 H   0  0  0  0  0  0  0  0  0  0  0  0
   -6.3916   -0.5531    0.5879 C   0  0  0  0  0  0  0  0  0  0  0  0
   -6.2146   -0.1616    1.5985 H   0  0  0  0  0  0  0  0  0  0  0  0
   -5.8857   -1.5251    0.5390 H   0  0  0  0  0  0  0  0  0  0  0  0
   -7.8903   -0.7616    0.3744 C   0  0  0  0  0  0  0  0  0  0  0  0
    6.4838   -1.4801   -1.0080 H   0  0  0  0  0  0  0  0  0  0  0  0
    6.4104   -1.7605    0.7239 H   0  0  0  0  0  0  0  0  0  0  0  0
    8.1202   -0.6015    0.0935 C   0  0  0  0  0  0  0  0  0  0  0  0
    8.3948    0.1308   -0.6736 H   0  0  0  0  0  0  0  0  0  0  0  0
    8.7830   -1.4650   -0.0159 H   0  0  0  0  0  0  0  0  0  0  0  0
    8.3192   -0.1480    1.0708 H   0  0  0  0  0  0  0  0  0  0  0  0
   -8.4340    0.1853    0.4614 H   0  0  0  0  0  0  0  0  0  0  0  0
   -8.3058   -1.4568    1.1100 H   0  0  0  0  0  0  0  0  0  0  0  0
   -8.0903   -1.1700   -0.6224 H   0  0  0  0  0  0  0  0  0  0  0  0
  1  4  2  0  0  0  0
  2  3  1  0  0  0  0
  2  1  1  0  0  0  0
  5  1  1  0  0  0  0
  5 12  1  0  0  0  0
  5 11  1  0  0  0  0
  6  7  1  0  0  0  0
  6 10  1  0  0  0  0
  8  7  1  0  0  0  0
  9  6  2  0  0  0  0
 10 18  1  0  0  0  0
 12 14  1  0  0  0  0
 13  5  1  0  0  0  0
 15 27  1  0  0  0  0
 15 12  1  0  0  0  0
 15 28  1  0  0  0  0
 16 12  1  0  0  0  0
 17 10  1  0  0  0  0
 19 20  1  0  0  0  0
 19 10  1  0  0  0  0
 19 21  1  0  0  0  0
 20 23  1  0  0  0  0
 22 19  1  0  0  0  0
 24 34  1  0  0  0  0
 24 20  1  0  0  0  0
 24 33  1  0  0  0  0
 25 20  1  0  0  0  0
 26 15  1  0  0  0  0
 28 29  1  0  0  0  0
 30 28  1  0  0  0  0
 31 38  1  0  0  0  0
 31 28  1  0  0  0  0
 31 39  1  0  0  0  0
 32 24  1  0  0  0  0
 34 37  1  0  0  0  0
 35 34  1  0  0  0  0
 36 34  1  0  0  0  0
 40 31  1  0  0  0  0
M  END
$$$$
