dimer_pw91_h_glutaric.log
 OpenBabel08081914533D
Gaussian software/kemi/g16/avx/g16/g16 # opt freq pw91pw91 6-31++g(d,p) G09Defau
 34 32  0  0  0  0  0  0  0  0999 V2000
   -2.0964   -1.4684   -0.2699 C   0  0  0  0  0  0  0  0  0  0  0  0
   -3.5581   -1.1011   -0.1624 C   0  0  0  0  0  0  0  0  0  0  0  0
   -3.9707   -1.0828   -1.1829 H   0  0  0  0  0  0  0  0  0  0  0  0
   -4.0812   -1.8723    0.4216 H   0  0  0  0  0  0  0  0  0  0  0  0
   -3.7817    0.2781    0.5112 C   0  0  0  0  0  0  0  0  0  0  0  0
   -3.4146    0.2448    1.5487 H   0  0  0  0  0  0  0  0  0  0  0  0
   -4.8700    0.4412    0.5550 H   0  0  0  0  0  0  0  0  0  0  0  0
   -3.1347    1.4681   -0.2147 C   0  0  0  0  0  0  0  0  0  0  0  0
   -3.2930    1.4297   -1.3037 H   0  0  0  0  0  0  0  0  0  0  0  0
   -3.6011    2.4082    0.1314 H   0  0  0  0  0  0  0  0  0  0  0  0
   -1.6497    1.6191    0.0476 C   0  0  0  0  0  0  0  0  0  0  0  0
   -1.1156    1.1430    1.0711 O   0  0  0  0  0  0  0  0  0  0  0  0
   -1.4074   -1.0817   -1.2399 O   0  0  0  0  0  0  0  0  0  0  0  0
   -1.0034    2.3156   -0.8700 O   0  0  0  0  0  0  0  0  0  0  0  0
    0.0058    2.3391   -0.6599 H   0  0  0  0  0  0  0  0  0  0  0  0
   -1.6246   -2.1821    0.7362 O   0  0  0  0  0  0  0  0  0  0  0  0
   -0.6007   -2.2901    0.6552 H   0  0  0  0  0  0  0  0  0  0  0  0
    1.6533   -1.6438   -0.1317 C   0  0  0  0  0  0  0  0  0  0  0  0
    3.1517   -1.4903    0.0474 C   0  0  0  0  0  0  0  0  0  0  0  0
    3.6014   -2.3667   -0.4540 H   0  0  0  0  0  0  0  0  0  0  0  0
    3.3635   -1.6087    1.1209 H   0  0  0  0  0  0  0  0  0  0  0  0
    3.7830   -0.2103   -0.5297 C   0  0  0  0  0  0  0  0  0  0  0  0
    4.8731   -0.3611   -0.5855 H   0  0  0  0  0  0  0  0  0  0  0  0
    3.4275   -0.0550   -1.5599 H   0  0  0  0  0  0  0  0  0  0  0  0
    3.5509    1.0823    0.2956 C   0  0  0  0  0  0  0  0  0  0  0  0
    4.1025    1.9079   -0.1762 H   0  0  0  0  0  0  0  0  0  0  0  0
    3.9277    0.9393    1.3207 H   0  0  0  0  0  0  0  0  0  0  0  0
    2.0938    1.4794    0.3637 C   0  0  0  0  0  0  0  0  0  0  0  0
    1.5686    2.2463   -0.4661 O   0  0  0  0  0  0  0  0  0  0  0  0
    0.9704   -2.3393    0.6450 O   0  0  0  0  0  0  0  0  0  0  0  0
    1.4366    0.9031    1.3629 O   0  0  0  0  0  0  0  0  0  0  0  0
    0.4238    1.0820    1.2786 H   0  0  0  0  0  0  0  0  0  0  0  0
    1.1628   -1.0188   -1.1917 O   0  0  0  0  0  0  0  0  0  0  0  0
    0.1339   -1.1234   -1.2324 H   0  0  0  0  0  0  0  0  0  0  0  0
  1  2  1  0  0  0  0
  1 16  1  0  0  0  0
  2  4  1  0  0  0  0
  2  5  1  0  0  0  0
  3  2  1  0  0  0  0
  5  7  1  0  0  0  0
  5  6  1  0  0  0  0
  8 11  1  0  0  0  0
  8 10  1  0  0  0  0
  8  5  1  0  0  0  0
  9  8  1  0  0  0  0
 11 12  2  0  0  0  0
 13  1  2  0  0  0  0
 14 15  1  0  0  0  0
 14 11  1  0  0  0  0
 17 16  1  0  0  0  0
 18 19  1  0  0  0  0
 18 30  2  0  0  0  0
 19 21  1  0  0  0  0
 20 19  1  0  0  0  0
 22 19  1  0  0  0  0
 22 25  1  0  0  0  0
 23 22  1  0  0  0  0
 24 22  1  0  0  0  0
 25 28  1  0  0  0  0
 25 27  1  0  0  0  0
 26 25  1  0  0  0  0
 28 31  1  0  0  0  0
 29 28  2  0  0  0  0
 32 31  1  0  0  0  0
 33 18  1  0  0  0  0
 34 33  1  0  0  0  0
M  END
$$$$
