dimer_wb97xd_h_pentanoic.log
 OpenBabel08081914533D
Gaussian opt/gaussian/g09/g09 # opt freq wb97xd/6-31++g(d,p)
 34 32  0  0  0  0  0  0  0  0999 V2000
   -1.7198   -0.8546    0.0821 C   0  0  0  0  0  0  0  0  0  0  0  0
   -0.8223   -1.5252   -0.6080 O   0  0  0  0  0  0  0  0  0  0  0  0
    0.0507   -1.0405   -0.6115 H   0  0  0  0  0  0  0  0  0  0  0  0
   -1.4903    0.2248    0.6221 O   0  0  0  0  0  0  0  0  0  0  0  0
   -3.0507   -1.5571    0.1799 C   0  0  0  0  0  0  0  0  0  0  0  0
    1.7192    0.8537   -0.0808 C   0  0  0  0  0  0  0  0  0  0  0  0
    0.8217    1.5243    0.6091 O   0  0  0  0  0  0  0  0  0  0  0  0
   -0.0510    1.0392    0.6134 H   0  0  0  0  0  0  0  0  0  0  0  0
    1.4900   -0.2264   -0.6198 O   0  0  0  0  0  0  0  0  0  0  0  0
    3.0497    1.5568   -0.1798 C   0  0  0  0  0  0  0  0  0  0  0  0
   -2.9181   -2.3433    0.9342 H   0  0  0  0  0  0  0  0  0  0  0  0
   -4.2122   -0.6404    0.5558 C   0  0  0  0  0  0  0  0  0  0  0  0
   -3.2323   -2.0742   -0.7679 H   0  0  0  0  0  0  0  0  0  0  0  0
   -5.0809   -1.2655    0.7959 H   0  0  0  0  0  0  0  0  0  0  0  0
   -4.5903    0.3468   -0.5498 C   0  0  0  0  0  0  0  0  0  0  0  0
   -3.9545   -0.0888    1.4667 H   0  0  0  0  0  0  0  0  0  0  0  0
    2.9160    2.3428   -0.9340 H   0  0  0  0  0  0  0  0  0  0  0  0
    3.2318    2.0741    0.7678 H   0  0  0  0  0  0  0  0  0  0  0  0
    4.2115    0.6409   -0.5567 C   0  0  0  0  0  0  0  0  0  0  0  0
    4.5915   -0.3459    0.5486 C   0  0  0  0  0  0  0  0  0  0  0  0
    3.9533    0.0890   -1.4673 H   0  0  0  0  0  0  0  0  0  0  0  0
    5.0794    1.2666   -0.7978 H   0  0  0  0  0  0  0  0  0  0  0  0
    3.7233   -0.9701    0.7902 H   0  0  0  0  0  0  0  0  0  0  0  0
    4.8435    0.2117    1.4605 H   0  0  0  0  0  0  0  0  0  0  0  0
   -4.8418   -0.2104   -1.4620 H   0  0  0  0  0  0  0  0  0  0  0  0
   -3.7213    0.9703   -0.7904 H   0  0  0  0  0  0  0  0  0  0  0  0
    5.7656   -1.2394    0.1535 C   0  0  0  0  0  0  0  0  0  0  0  0
    6.6576   -0.6437   -0.0709 H   0  0  0  0  0  0  0  0  0  0  0  0
    6.0229   -1.9383    0.9547 H   0  0  0  0  0  0  0  0  0  0  0  0
    5.5246   -1.8272   -0.7388 H   0  0  0  0  0  0  0  0  0  0  0  0
   -5.7639    1.2414   -0.1557 C   0  0  0  0  0  0  0  0  0  0  0  0
   -6.0197    1.9406   -0.9571 H   0  0  0  0  0  0  0  0  0  0  0  0
   -6.6567    0.6465    0.0677 H   0  0  0  0  0  0  0  0  0  0  0  0
   -5.5232    1.8288    0.7370 H   0  0  0  0  0  0  0  0  0  0  0  0
  1  5  1  0  0  0  0
  1  4  2  0  0  0  0
  2  1  1  0  0  0  0
  3  2  1  0  0  0  0
  5 12  1  0  0  0  0
  5 11  1  0  0  0  0
  6  7  1  0  0  0  0
  7  8  1  0  0  0  0
  9  6  2  0  0  0  0
 10  6  1  0  0  0  0
 10 18  1  0  0  0  0
 12 14  1  0  0  0  0
 12 16  1  0  0  0  0
 13  5  1  0  0  0  0
 15 31  1  0  0  0  0
 15 12  1  0  0  0  0
 17 10  1  0  0  0  0
 19 10  1  0  0  0  0
 19 20  1  0  0  0  0
 20 23  1  0  0  0  0
 20 24  1  0  0  0  0
 21 19  1  0  0  0  0
 22 19  1  0  0  0  0
 25 15  1  0  0  0  0
 26 15  1  0  0  0  0
 27 20  1  0  0  0  0
 27 29  1  0  0  0  0
 28 27  1  0  0  0  0
 30 27  1  0  0  0  0
 31 33  1  0  0  0  0
 31 34  1  0  0  0  0
 32 31  1  0  0  0  0
M  END
$$$$
