dimer_pw91_h_adipic.log
 OpenBabel08081914533D
Gaussian software/kemi/g16/avx/g16/g16 # opt freq pw91pw91 6-31++g(d,p) G09Defau
 40 38  0  0  0  0  0  0  0  0999 V2000
   -3.3028   -1.9734   -1.8306 H   0  0  0  0  0  0  0  0  0  0  0  0
   -2.9463   -1.2355   -1.0913 C   0  0  0  0  0  0  0  0  0  0  0  0
   -2.7849   -0.3065   -1.6651 H   0  0  0  0  0  0  0  0  0  0  0  0
   -1.5803   -1.6929   -0.6348 C   0  0  0  0  0  0  0  0  0  0  0  0
   -3.9927   -1.0444    0.0150 C   0  0  0  0  0  0  0  0  0  0  0  0
   -4.9528   -0.8211   -0.4829 H   0  0  0  0  0  0  0  0  0  0  0  0
   -4.1345   -2.0001    0.5466 H   0  0  0  0  0  0  0  0  0  0  0  0
   -3.7196    0.0455    1.0702 C   0  0  0  0  0  0  0  0  0  0  0  0
   -4.5975    0.0849    1.7352 H   0  0  0  0  0  0  0  0  0  0  0  0
   -2.8662   -0.2440    1.7016 H   0  0  0  0  0  0  0  0  0  0  0  0
   -3.4860    1.4790    0.5118 C   0  0  0  0  0  0  0  0  0  0  0  0
   -3.8170    2.2115    1.2640 H   0  0  0  0  0  0  0  0  0  0  0  0
   -4.0647    1.6435   -0.4096 H   0  0  0  0  0  0  0  0  0  0  0  0
   -1.2916   -1.8789    0.5658 O   0  0  0  0  0  0  0  0  0  0  0  0
   -0.7244   -1.8598   -1.6325 O   0  0  0  0  0  0  0  0  0  0  0  0
    0.2116   -2.0888   -1.2730 H   0  0  0  0  0  0  0  0  0  0  0  0
   -2.0305    1.7692    0.2220 C   0  0  0  0  0  0  0  0  0  0  0  0
   -1.5537    1.7463   -0.9337 O   0  0  0  0  0  0  0  0  0  0  0  0
   -1.3145    2.0247    1.3060 O   0  0  0  0  0  0  0  0  0  0  0  0
   -0.3170    2.1443    1.0687 H   0  0  0  0  0  0  0  0  0  0  0  0
    4.1289   -2.1573    0.1099 H   0  0  0  0  0  0  0  0  0  0  0  0
    3.4369   -1.6879    0.8247 C   0  0  0  0  0  0  0  0  0  0  0  0
    3.6266   -2.0898    1.8308 H   0  0  0  0  0  0  0  0  0  0  0  0
    2.0200   -2.0186    0.4205 C   0  0  0  0  0  0  0  0  0  0  0  0
    3.6204   -0.1460    0.8391 C   0  0  0  0  0  0  0  0  0  0  0  0
    2.8143    0.2933    1.4501 H   0  0  0  0  0  0  0  0  0  0  0  0
    4.5630    0.0871    1.3617 H   0  0  0  0  0  0  0  0  0  0  0  0
    3.6366    0.4854   -0.5677 C   0  0  0  0  0  0  0  0  0  0  0  0
    2.9814   -0.0777   -1.2526 H   0  0  0  0  0  0  0  0  0  0  0  0
    4.6520    0.4191   -0.9926 H   0  0  0  0  0  0  0  0  0  0  0  0
    3.1975    1.9738   -0.5824 C   0  0  0  0  0  0  0  0  0  0  0  0
    3.4369    2.4161   -1.5608 H   0  0  0  0  0  0  0  0  0  0  0  0
    3.7151    2.5403    0.2060 H   0  0  0  0  0  0  0  0  0  0  0  0
    1.6985   -2.2339   -0.7666 O   0  0  0  0  0  0  0  0  0  0  0  0
    1.1538   -1.9731    1.4235 O   0  0  0  0  0  0  0  0  0  0  0  0
    0.1880   -2.0298    1.0693 H   0  0  0  0  0  0  0  0  0  0  0  0
    1.7075    2.0826   -0.3550 C   0  0  0  0  0  0  0  0  0  0  0  0
    1.2168    2.2540    0.7813 O   0  0  0  0  0  0  0  0  0  0  0  0
    0.9852    1.9195   -1.4538 O   0  0  0  0  0  0  0  0  0  0  0  0
   -0.0216    1.8955   -1.2303 H   0  0  0  0  0  0  0  0  0  0  0  0
  1  2  1  0  0  0  0
  2  4  1  0  0  0  0
  2  5  1  0  0  0  0
  3  2  1  0  0  0  0
  4 14  2  0  0  0  0
  5  7  1  0  0  0  0
  5  8  1  0  0  0  0
  6  5  1  0  0  0  0
  8 10  1  0  0  0  0
  8  9  1  0  0  0  0
 11  8  1  0  0  0  0
 11 12  1  0  0  0  0
 13 11  1  0  0  0  0
 15 16  1  0  0  0  0
 15  4  1  0  0  0  0
 17 11  1  0  0  0  0
 17 19  1  0  0  0  0
 18 17  2  0  0  0  0
 20 19  1  0  0  0  0
 21 22  1  0  0  0  0
 22 25  1  0  0  0  0
 22 23  1  0  0  0  0
 24 22  1  0  0  0  0
 24 35  1  0  0  0  0
 25 27  1  0  0  0  0
 25 26  1  0  0  0  0
 28 25  1  0  0  0  0
 29 28  1  0  0  0  0
 30 28  1  0  0  0  0
 31 28  1  0  0  0  0
 31 37  1  0  0  0  0
 31 33  1  0  0  0  0
 32 31  1  0  0  0  0
 34 24  2  0  0  0  0
 36 35  1  0  0  0  0
 37 38  2  0  0  0  0
 39 40  1  0  0  0  0
 39 37  1  0  0  0  0
M  END
$$$$
