dimer_wb97xd_h_oxalic.log
 OpenBabel08081914533D
Gaussian groups/kemi/kmacke/programs/G09D/g09/g09 # opt freq wb97xd 6-31++g(d,p)
 16 14  0  0  0  0  0  0  0  0999 V2000
   -3.4303    0.0786    0.0002 C   0  0  0  0  0  0  0  0  0  0  0  0
   -1.8899    0.0455    0.0002 C   0  0  0  0  0  0  0  0  0  0  0  0
   -1.2748   -1.0082    0.0001 O   0  0  0  0  0  0  0  0  0  0  0  0
   -4.0739    1.0930    0.0025 O   0  0  0  0  0  0  0  0  0  0  0  0
   -1.3773    1.2416    0.0004 O   0  0  0  0  0  0  0  0  0  0  0  0
   -0.3815    1.1886    0.0003 H   0  0  0  0  0  0  0  0  0  0  0  0
   -3.9298   -1.1554   -0.0027 O   0  0  0  0  0  0  0  0  0  0  0  0
   -4.8948   -1.0795   -0.0025 H   0  0  0  0  0  0  0  0  0  0  0  0
    1.8899   -0.0455   -0.0000 C   0  0  0  0  0  0  0  0  0  0  0  0
    3.4303   -0.0786    0.0002 C   0  0  0  0  0  0  0  0  0  0  0  0
    4.0740   -1.0930    0.0025 O   0  0  0  0  0  0  0  0  0  0  0  0
    1.2748    1.0081   -0.0002 O   0  0  0  0  0  0  0  0  0  0  0  0
    3.9298    1.1554   -0.0026 O   0  0  0  0  0  0  0  0  0  0  0  0
    4.8947    1.0796   -0.0023 H   0  0  0  0  0  0  0  0  0  0  0  0
    1.3773   -1.2416    0.0002 O   0  0  0  0  0  0  0  0  0  0  0  0
    0.3815   -1.1887    0.0002 H   0  0  0  0  0  0  0  0  0  0  0  0
  1  2  1  0  0  0  0
  1  4  2  0  0  0  0
  2  5  1  0  0  0  0
  3  2  2  0  0  0  0
  6  5  1  0  0  0  0
  7  8  1  0  0  0  0
  7  1  1  0  0  0  0
  9 10  1  0  0  0  0
  9 15  1  0  0  0  0
 10 11  2  0  0  0  0
 12  9  2  0  0  0  0
 13 14  1  0  0  0  0
 13 10  1  0  0  0  0
 16 15  1  0  0  0  0
M  END
$$$$
