monomer_wb97xd_h_glutaric.log
 OpenBabel08081914533D
Gaussian groups/kemi/kmacke/programs/G09D/g09/g09 # opt freq wb97xd 6-31++g(d,p)
 17 16  0  0  0  0  0  0  0  0999 V2000
    2.4828    0.1594   -0.0728 C   0  0  0  0  0  0  0  0  0  0  0  0
    1.2565   -0.6676    0.2202 C   0  0  0  0  0  0  0  0  0  0  0  0
    1.3295   -1.5890   -0.3699 H   0  0  0  0  0  0  0  0  0  0  0  0
    1.3125   -0.9799    1.2701 H   0  0  0  0  0  0  0  0  0  0  0  0
   -0.0430    0.0751   -0.0677 C   0  0  0  0  0  0  0  0  0  0  0  0
   -0.0631    0.3835   -1.1176 H   0  0  0  0  0  0  0  0  0  0  0  0
   -0.0843    0.9901    0.5297 H   0  0  0  0  0  0  0  0  0  0  0  0
   -1.2615   -0.8075    0.2396 C   0  0  0  0  0  0  0  0  0  0  0  0
   -1.2479   -1.7138   -0.3705 H   0  0  0  0  0  0  0  0  0  0  0  0
   -1.2526   -1.0968    1.2964 H   0  0  0  0  0  0  0  0  0  0  0  0
   -2.5568   -0.0939   -0.0495 C   0  0  0  0  0  0  0  0  0  0  0  0
   -3.3078   -0.3373   -0.9650 O   0  0  0  0  0  0  0  0  0  0  0  0
    2.4915    1.2932   -0.4910 O   0  0  0  0  0  0  0  0  0  0  0  0
   -2.7989    0.8938    0.8371 O   0  0  0  0  0  0  0  0  0  0  0  0
   -3.6270    1.3186    0.5729 H   0  0  0  0  0  0  0  0  0  0  0  0
    3.6162   -0.5211    0.1922 O   0  0  0  0  0  0  0  0  0  0  0  0
    4.3571    0.0657   -0.0152 H   0  0  0  0  0  0  0  0  0  0  0  0
  1 16  1  0  0  0  0
  1  2  1  0  0  0  0
  2  4  1  0  0  0  0
  3  2  1  0  0  0  0
  5  2  1  0  0  0  0
  5  8  1  0  0  0  0
  5  7  1  0  0  0  0
  6  5  1  0  0  0  0
  8 10  1  0  0  0  0
  9  8  1  0  0  0  0
 11  8  1  0  0  0  0
 11 14  1  0  0  0  0
 12 11  2  0  0  0  0
 13  1  2  0  0  0  0
 15 14  1  0  0  0  0
 17 16  1  0  0  0  0
M  END
$$$$
