monomer_wb97xd_qh_suberic.log
 OpenBabel08081914533D
Gaussian groups/kemi/kmacke/programs/G09D/g09/g09 # opt freq wb97xd 6-31++g(d,p)
 26 25  0  0  0  0  0  0  0  0999 V2000
    2.1562   -0.0839   -0.0509 C   0  0  0  0  0  0  0  0  0  0  0  0
    2.0081    1.3833   -0.3542 C   0  0  0  0  0  0  0  0  0  0  0  0
    2.3869    1.9817    0.4785 H   0  0  0  0  0  0  0  0  0  0  0  0
    2.5939    1.5988   -1.2508 H   0  0  0  0  0  0  0  0  0  0  0  0
    0.5191    1.6975   -0.6190 C   0  0  0  0  0  0  0  0  0  0  0  0
    0.1591    1.0110   -1.3926 H   0  0  0  0  0  0  0  0  0  0  0  0
    0.4497    2.7074   -1.0390 H   0  0  0  0  0  0  0  0  0  0  0  0
   -0.3533    1.6079    0.6384 C   0  0  0  0  0  0  0  0  0  0  0  0
   -0.1353    0.6873    1.1893 H   0  0  0  0  0  0  0  0  0  0  0  0
   -0.0706    2.4226    1.3166 H   0  0  0  0  0  0  0  0  0  0  0  0
   -1.8608    1.6973    0.3705 C   0  0  0  0  0  0  0  0  0  0  0  0
   -2.0784    2.6339   -0.1595 H   0  0  0  0  0  0  0  0  0  0  0  0
   -2.3752    1.7672    1.3373 H   0  0  0  0  0  0  0  0  0  0  0  0
   -2.4844    0.5417   -0.4275 C   0  0  0  0  0  0  0  0  0  0  0  0
   -3.5535    0.7510   -0.5397 H   0  0  0  0  0  0  0  0  0  0  0  0
   -2.0744    0.5022   -1.4417 H   0  0  0  0  0  0  0  0  0  0  0  0
   -2.3473   -0.8500    0.2197 C   0  0  0  0  0  0  0  0  0  0  0  0
   -3.0564   -1.5341   -0.2607 H   0  0  0  0  0  0  0  0  0  0  0  0
   -2.5822   -0.8173    1.2865 H   0  0  0  0  0  0  0  0  0  0  0  0
   -0.9793   -1.4727    0.0755 C   0  0  0  0  0  0  0  0  0  0  0  0
   -0.2924   -1.8699    0.9964 O   0  0  0  0  0  0  0  0  0  0  0  0
    2.1199   -0.9599   -0.8969 O   0  0  0  0  0  0  0  0  0  0  0  0
   -0.5839   -1.5367   -1.2010 O   0  0  0  0  0  0  0  0  0  0  0  0
    0.3640   -1.7679   -1.2182 H   0  0  0  0  0  0  0  0  0  0  0  0
    2.2472   -0.3540    1.2530 O   0  0  0  0  0  0  0  0  0  0  0  0
    2.0952   -1.3061    1.3662 H   0  0  0  0  0  0  0  0  0  0  0  0
  1 25  1  0  0  0  0
  2  1  1  0  0  0  0
  2  3  1  0  0  0  0
  4  2  1  0  0  0  0
  5  2  1  0  0  0  0
  5  8  1  0  0  0  0
  6  5  1  0  0  0  0
  7  5  1  0  0  0  0
  8  9  1  0  0  0  0
  8 10  1  0  0  0  0
 11  8  1  0  0  0  0
 11 13  1  0  0  0  0
 12 11  1  0  0  0  0
 14 17  1  0  0  0  0
 14 11  1  0  0  0  0
 15 14  1  0  0  0  0
 16 14  1  0  0  0  0
 17 19  1  0  0  0  0
 18 17  1  0  0  0  0
 20 17  1  0  0  0  0
 20 21  2  0  0  0  0
 22  1  2  0  0  0  0
 23 20  1  0  0  0  0
 24 23  1  0  0  0  0
 25 26  1  0  0  0  0
M  END
$$$$
