monomer_pw91_qh_oxalic.log
 OpenBabel08081914533D
Gaussian software/kemi/g16/avx2/g16/g16 # opt freq pw91pw91 6-31++g(d,p) G09Defa
  8  7  0  0  0  0  0  0  0  0999 V2000
   -0.0927    0.1058   -0.7611 C   0  0  0  0  0  0  0  0  0  0  0  0
    0.0927   -0.1058    0.7611 C   0  0  0  0  0  0  0  0  0  0  0  0
    0.0283   -1.2184    1.2600 O   0  0  0  0  0  0  0  0  0  0  0  0
   -0.0283    1.2184   -1.2600 O   0  0  0  0  0  0  0  0  0  0  0  0
    0.3210    1.0280    1.4279 O   0  0  0  0  0  0  0  0  0  0  0  0
    0.3145    1.7515    0.7527 H   0  0  0  0  0  0  0  0  0  0  0  0
   -0.3210   -1.0280   -1.4279 O   0  0  0  0  0  0  0  0  0  0  0  0
   -0.3145   -1.7515   -0.7527 H   0  0  0  0  0  0  0  0  0  0  0  0
  1  2  1  0  0  0  0
  2  3  2  0  0  0  0
  2  5  1  0  0  0  0
  4  1  2  0  0  0  0
  6  5  1  0  0  0  0
  7  1  1  0  0  0  0
  7  8  1  0  0  0  0
M  END
$$$$
