monomer_pw91_qh_glutaric.log
 OpenBabel08081914533D
Gaussian software/kemi/g16/avx/g16/g16 # opt freq pw91pw91 6-31++g(d,p) G09Defau
 17 16  0  0  0  0  0  0  0  0999 V2000
   -2.5421    0.1118    0.0000 C   0  0  0  0  0  0  0  0  0  0  0  0
   -1.2635   -0.6985    0.0000 C   0  0  0  0  0  0  0  0  0  0  0  0
   -1.2959   -1.3688    0.8777 H   0  0  0  0  0  0  0  0  0  0  0  0
   -1.2959   -1.3688   -0.8777 H   0  0  0  0  0  0  0  0  0  0  0  0
   -0.0000    0.1647    0.0000 C   0  0  0  0  0  0  0  0  0  0  0  0
    0.0000    0.8304    0.8766 H   0  0  0  0  0  0  0  0  0  0  0  0
   -0.0000    0.8304   -0.8766 H   0  0  0  0  0  0  0  0  0  0  0  0
    1.2635   -0.6985   -0.0000 C   0  0  0  0  0  0  0  0  0  0  0  0
    1.2959   -1.3688    0.8776 H   0  0  0  0  0  0  0  0  0  0  0  0
    1.2959   -1.3688   -0.8777 H   0  0  0  0  0  0  0  0  0  0  0  0
    2.5421    0.1118   -0.0000 C   0  0  0  0  0  0  0  0  0  0  0  0
    2.6270    1.3302   -0.0000 O   0  0  0  0  0  0  0  0  0  0  0  0
   -2.6270    1.3302    0.0000 O   0  0  0  0  0  0  0  0  0  0  0  0
    3.6434   -0.7007    0.0000 O   0  0  0  0  0  0  0  0  0  0  0  0
    4.4209   -0.1027    0.0000 H   0  0  0  0  0  0  0  0  0  0  0  0
   -3.6434   -0.7007   -0.0000 O   0  0  0  0  0  0  0  0  0  0  0  0
   -4.4209   -0.1027   -0.0000 H   0  0  0  0  0  0  0  0  0  0  0  0
  2  5  1  0  0  0  0
  2  1  1  0  0  0  0
  2  3  1  0  0  0  0
  4  2  1  0  0  0  0
  5  6  1  0  0  0  0
  7  5  1  0  0  0  0
  8  5  1  0  0  0  0
  8  9  1  0  0  0  0
 10  8  1  0  0  0  0
 11 12  2  0  0  0  0
 11  8  1  0  0  0  0
 11 14  1  0  0  0  0
 13  1  2  0  0  0  0
 14 15  1  0  0  0  0
 16  1  1  0  0  0  0
 17 16  1  0  0  0  0
M  END
$$$$
