monomer_m062x_h_hexanoic.log
 OpenBabel08081914533D
Gaussian software/kemi/g16/avx2/g16/g16 # opt freq m062x 6-31++g(d,p) G09Default
 20 19  0  0  0  0  0  0  0  0999 V2000
    2.0538   -1.0949    0.0000 C   0  0  0  0  0  0  0  0  0  0  0  0
    0.5481   -1.0470    0.0000 C   0  0  0  0  0  0  0  0  0  0  0  0
    0.2013   -1.6110    0.8748 H   0  0  0  0  0  0  0  0  0  0  0  0
    0.2013   -1.6110   -0.8748 H   0  0  0  0  0  0  0  0  0  0  0  0
    0.0000    0.3742    0.0000 C   0  0  0  0  0  0  0  0  0  0  0  0
    0.3849    0.9096    0.8758 H   0  0  0  0  0  0  0  0  0  0  0  0
    0.3849    0.9096   -0.8758 H   0  0  0  0  0  0  0  0  0  0  0  0
   -1.5265    0.4029    0.0000 C   0  0  0  0  0  0  0  0  0  0  0  0
   -1.9043   -0.1381    0.8794 H   0  0  0  0  0  0  0  0  0  0  0  0
   -1.9043   -0.1381   -0.8794 H   0  0  0  0  0  0  0  0  0  0  0  0
    2.5161   -2.3638    0.0000 O   0  0  0  0  0  0  0  0  0  0  0  0
    3.4846   -2.3174    0.0000 H   0  0  0  0  0  0  0  0  0  0  0  0
    2.7931   -0.1413    0.0000 O   0  0  0  0  0  0  0  0  0  0  0  0
   -2.0945    1.8210    0.0000 C   0  0  0  0  0  0  0  0  0  0  0  0
   -1.7166    2.3596    0.8783 H   0  0  0  0  0  0  0  0  0  0  0  0
   -1.7166    2.3596   -0.8783 H   0  0  0  0  0  0  0  0  0  0  0  0
   -3.6213    1.8421    0.0000 C   0  0  0  0  0  0  0  0  0  0  0  0
   -4.0185    1.3322    0.8840 H   0  0  0  0  0  0  0  0  0  0  0  0
   -4.0185    1.3322   -0.8840 H   0  0  0  0  0  0  0  0  0  0  0  0
   -4.0095    2.8644    0.0000 H   0  0  0  0  0  0  0  0  0  0  0  0
  1  2  1  0  0  0  0
  2  3  1  0  0  0  0
  4  2  1  0  0  0  0
  5  2  1  0  0  0  0
  5  6  1  0  0  0  0
  7  5  1  0  0  0  0
  8  5  1  0  0  0  0
  8  9  1  0  0  0  0
 10  8  1  0  0  0  0
 11 12  1  0  0  0  0
 11  1  1  0  0  0  0
 13  1  2  0  0  0  0
 14  8  1  0  0  0  0
 14 15  1  0  0  0  0
 16 14  1  0  0  0  0
 17 14  1  0  0  0  0
 17 18  1  0  0  0  0
 19 17  1  0  0  0  0
 20 17  1  0  0  0  0
M  END
$$$$
