monomer_m062x_qh_malonic.log
 OpenBabel08081914533D
Gaussian software/kemi/g16/avx2/g16/g16 # opt freq m062x 6-31++g(d,p) G09Default
 11 10  0  0  0  0  0  0  0  0999 V2000
   -0.0000   -0.9741    0.0002 C   0  0  0  0  0  0  0  0  0  0  0  0
    0.0475   -1.6044    0.8906 H   0  0  0  0  0  0  0  0  0  0  0  0
   -0.0476   -1.6049   -0.8897 H   0  0  0  0  0  0  0  0  0  0  0  0
    1.2607   -0.1386   -0.0420 C   0  0  0  0  0  0  0  0  0  0  0  0
   -1.2606   -0.1384    0.0420 C   0  0  0  0  0  0  0  0  0  0  0  0
    2.2340   -0.3170    0.6420 O   0  0  0  0  0  0  0  0  0  0  0  0
   -2.2341   -0.3173   -0.6417 O   0  0  0  0  0  0  0  0  0  0  0  0
    1.1800    0.8219   -0.9799 O   0  0  0  0  0  0  0  0  0  0  0  0
    2.0133    1.3176   -0.9684 H   0  0  0  0  0  0  0  0  0  0  0  0
   -1.1800    0.8225    0.9794 O   0  0  0  0  0  0  0  0  0  0  0  0
   -2.0133    1.3181    0.9677 H   0  0  0  0  0  0  0  0  0  0  0  0
  1  5  1  0  0  0  0
  1  2  1  0  0  0  0
  3  1  1  0  0  0  0
  4  1  1  0  0  0  0
  4  6  2  0  0  0  0
  5 10  1  0  0  0  0
  7  5  2  0  0  0  0
  8  9  1  0  0  0  0
  8  4  1  0  0  0  0
 11 10  1  0  0  0  0
M  END
$$$$
