27
2sa1tma-65
S       -2.35702200       0.23848900       0.01618600
O       -3.69292900       0.74329700      -0.11153300
O       -1.30046000       1.08648600       0.56466100
O       -2.42586900      -1.09130300       0.86030200
O       -1.88080700      -0.24576700      -1.41700600
H       -0.90851900      -0.45662900      -1.38187000
H       -1.52453800      -1.50982800       0.92588200
S        1.14759200      -1.59207900       0.05311800
O        0.71855200      -0.61007300      -0.98790900
O        0.01655900      -2.17177100       0.79737600
O        1.73855100      -2.79001600      -0.85870300
O        2.23504500      -1.07548100       0.88114000
H        0.95127200       1.02955900      -0.26216400
H        1.87018200      -3.56568900      -0.29564300
N        1.45252600       1.90926600      -0.02197800
C        2.82893400       1.75143300      -0.56064500
C        0.72314800       3.02807600      -0.67160700
C        1.45742400       2.03325400       1.46158000
H       -0.29398100       3.04446500      -0.28303100
H        1.24355600       3.96270200      -0.45275800
H        0.70269700       2.85371100      -1.74784000
H        3.27753000       0.87526800      -0.09270400
H        2.76635300       1.59753100      -1.63786100
H        3.40154300       2.65383600      -0.33738000
H        1.93320200       1.14238300       1.87151900
H        2.01232200       2.93387000       1.73296600
H        0.42541400       2.09186500       1.80327000
27
2sa1tma-49
S       -2.38136500       0.18237400       0.00068500
O       -1.87857000      -0.34769500      -1.40586000
O       -3.74503000       0.59938500      -0.14728600
O       -2.36862500      -1.10193700       0.91510800
O       -1.37610400       1.11915600       0.49951100
H        0.90548100       1.07407900      -0.32943000
H       -1.43990900      -1.44545500       1.01761800
S        1.21759200      -1.56878900       0.06076500
O        2.47727400      -1.10649300       0.64272000
O        0.16083200      -1.95851800       0.99537600
O        0.72579900      -0.60145000      -0.98075100
O        1.52996900      -2.93755700      -0.73670400
H        2.38769500      -2.85123400      -1.17434900
H       -0.89661900      -0.51335500      -1.35744800
N        1.39060400       1.94682100      -0.03138500
C        0.63332100       3.10398500      -0.57441700
C        1.41284900       1.94547600       1.45828500
C        2.76358700       1.86725000      -0.59520600
H        1.94542100       1.05296200       1.78805900
H        1.92313200       2.84875700       1.79919000
H        0.38391200       1.91837100       1.81349800
H        0.59556000       3.01826500      -1.66084600
H       -0.37674200       3.07462000      -0.16955100
H        1.14716300       4.02419800      -0.28900400
H        2.69219900       1.81472000      -1.68173800
H        3.32034200       2.75738700      -0.29561500
H        3.23560400       0.96219600      -0.21278400
27
2sa1tma-114
S        2.22710700      -0.60476500      -0.04564200
O        1.90090700      -0.11169200       1.42529800
O        3.37622100      -1.46005100       0.02722300
O        2.64901500       0.70885600      -0.80610200
O        0.97978600      -1.09709000      -0.62733700
H        1.86499200       1.32011400      -0.88394200
H        1.03221400       0.38210400       1.43108900
S       -0.74113800       1.75265800      -0.06940400
O        0.47833700       2.25061300      -0.72988800
O       -1.64002800       0.94495200      -0.90161100
O       -0.45319300       1.10511400       1.23770500
O       -1.62539400       3.06431600       0.25542200
H       -1.03690500       3.75256500       0.59560700
N       -1.87808000      -1.63893000      -0.04672600
C       -1.61191700      -2.63968200      -1.11182700
C       -1.27954800      -2.03446100       1.25533400
C       -3.32645900      -1.34107200       0.08876600
H       -1.38889500      -1.20110900       1.94891900
H       -1.79907600      -2.92168700       1.62369100
H       -0.22260200      -2.23912500       1.09813800
H       -2.03219000      -2.26986900      -2.04728300
H       -0.53329000      -2.75065200      -1.21268100
H       -2.08107500      -3.58584600      -0.83387200
H       -3.69852100      -0.96972500      -0.86533300
H       -3.85226600      -2.25242300       0.38053500
H       -3.45170300      -0.56671200       0.84487800
H       -1.44728900      -0.74026100      -0.35123200
