1me-da.log
 OpenBabel02271919093D
Gaussian kemi/andersx/programs/g09/g09 # opt freq wb97xd 6-31++g(d,p)
 15 14  0  0  0  0  0  0  0  0999 V2000
    0.0627    0.7336    0.2388 C   0  0  0  0  0  0  0  0  0  0  0  0
   -1.3792    0.5599   -0.2206 C   0  0  0  0  0  0  0  0  0  0  0  0
    0.3990    1.7512    0.0021 H   0  0  0  0  0  0  0  0  0  0  0  0
    0.9258   -0.2202   -0.4293 N   0  0  0  0  0  0  0  0  0  0  0  0
    0.1019    0.6359    1.3439 H   0  0  0  0  0  0  0  0  0  0  0  0
   -1.4074    0.6460   -1.3114 H   0  0  0  0  0  0  0  0  0  0  0  0
   -1.9915    1.3745    0.1960 H   0  0  0  0  0  0  0  0  0  0  0  0
   -1.8602   -0.7753    0.1397 N   0  0  0  0  0  0  0  0  0  0  0  0
    0.4923   -1.1363   -0.3602 H   0  0  0  0  0  0  0  0  0  0  0  0
    2.2769   -0.2467    0.0973 C   0  0  0  0  0  0  0  0  0  0  0  0
   -2.7167   -1.0075   -0.3489 H   0  0  0  0  0  0  0  0  0  0  0  0
   -2.0494   -0.8364    1.1350 H   0  0  0  0  0  0  0  0  0  0  0  0
    2.7671    0.7140   -0.0970 H   0  0  0  0  0  0  0  0  0  0  0  0
    2.8552   -1.0226   -0.4114 H   0  0  0  0  0  0  0  0  0  0  0  0
    2.3277   -0.4320    1.1861 H   0  0  0  0  0  0  0  0  0  0  0  0
  1  5  1  0  0  0  0
  2  8  1  0  0  0  0
  2  7  1  0  0  0  0
  2  1  1  0  0  0  0
  3  1  1  0  0  0  0
  4  9  1  0  0  0  0
  4 10  1  0  0  0  0
  4  1  1  0  0  0  0
  6  2  1  0  0  0  0
  8 12  1  0  0  0  0
 10 15  1  0  0  0  0
 11  8  1  0  0  0  0
 13 10  1  0  0  0  0
 14 10  1  0  0  0  0
M  END
$$$$
