1sa_1di-12me-da.log
 OpenBabel02271919093D
Gaussian kemi/andersx/programs/g09/g09 # opt freq wb97xd 6-31++g(d,p)
 25 23  0  0  0  0  0  0  0  0999 V2000
   -1.9237   -0.1706   -0.1525 S   0  0  0  0  0  0  0  0  0  0  0  0
   -0.9053   -0.6710   -1.0827 O   0  0  0  0  0  0  0  0  0  0  0  0
   -3.3125   -0.1756   -0.5767 O   0  0  0  0  0  0  0  0  0  0  0  0
   -1.8274   -1.2560    1.0866 O   0  0  0  0  0  0  0  0  0  0  0  0
   -2.6706   -1.2316    1.5572 H   0  0  0  0  0  0  0  0  0  0  0  0
   -1.4848    1.1235    0.4641 O   0  0  0  0  0  0  0  0  0  0  0  0
    0.0146    1.3344    0.1192 H   0  0  0  0  0  0  0  0  0  0  0  0
    1.8513    0.8331    0.9857 C   0  0  0  0  0  0  0  0  0  0  0  0
    1.6581   -0.6868    0.9360 C   0  0  0  0  0  0  0  0  0  0  0  0
    2.9015    1.0969    0.8236 H   0  0  0  0  0  0  0  0  0  0  0  0
    1.0577    1.4132   -0.1236 N   0  0  0  0  0  0  0  0  0  0  0  0
    2.3215   -1.1525    1.6755 H   0  0  0  0  0  0  0  0  0  0  0  0
    0.6301   -0.9294    1.2202 H   0  0  0  0  0  0  0  0  0  0  0  0
    1.5073    1.2674    1.9275 H   0  0  0  0  0  0  0  0  0  0  0  0
    1.9315   -1.1535   -0.4172 N   0  0  0  0  0  0  0  0  0  0  0  0
    1.3802    2.8032   -0.4877 C   0  0  0  0  0  0  0  0  0  0  0  0
    1.2045    0.7616   -0.9127 H   0  0  0  0  0  0  0  0  0  0  0  0
    3.1523   -1.9248   -0.5812 C   0  0  0  0  0  0  0  0  0  0  0  0
    0.7193    3.1147   -1.2968 H   0  0  0  0  0  0  0  0  0  0  0  0
    1.2146    3.4457    0.3782 H   0  0  0  0  0  0  0  0  0  0  0  0
    2.4216    2.8736   -0.8071 H   0  0  0  0  0  0  0  0  0  0  0  0
    3.1741   -2.8453    0.0233 H   0  0  0  0  0  0  0  0  0  0  0  0
    3.2702   -2.1987   -1.6323 H   0  0  0  0  0  0  0  0  0  0  0  0
    4.0186   -1.3156   -0.3006 H   0  0  0  0  0  0  0  0  0  0  0  0
    1.1166   -1.6243   -0.7960 H   0  0  0  0  0  0  0  0  0  0  0  0
  1  6  1  0  0  0  0
  1  4  1  0  0  0  0
  2  1  2  0  0  0  0
  3  1  2  0  0  0  0
  4  5  1  0  0  0  0
  8 14  1  0  0  0  0
  9  8  1  0  0  0  0
  9 13  1  0  0  0  0
  9 12  1  0  0  0  0
 10  8  1  0  0  0  0
 11  7  1  0  0  0  0
 11  8  1  0  0  0  0
 15  9  1  0  0  0  0
 16 11  1  0  0  0  0
 16 20  1  0  0  0  0
 17 11  1  0  0  0  0
 18 15  1  0  0  0  0
 18 24  1  0  0  0  0
 18 22  1  0  0  0  0
 19 16  1  0  0  0  0
 21 16  1  0  0  0  0
 23 18  1  0  0  0  0
 25 15  1  0  0  0  0
M  RAD  1   6   2
M  END
$$$$
