1sa_1oa_3w.log
 OpenBabel02281910253D
Gaussian opt/gaussian/g09/g09 # opt freq wb97xd/6-31++g(d,p)
 24 18  0  0  0  0  0  0  0  0999 V2000
    2.4194   -0.2871    0.0679 S   0  0  0  0  0  0  0  0  0  0  0  0
    2.2837    0.6412    1.1916 O   0  0  0  0  0  0  0  0  0  0  0  0
    1.4777   -0.0075   -1.0533 O   0  0  0  0  0  0  0  0  0  0  0  0
    3.8946    0.0525   -0.5068 O   0  0  0  0  0  0  0  0  0  0  0  0
    2.4330   -1.7149    0.4113 O   0  0  0  0  0  0  0  0  0  0  0  0
    4.1288   -0.6131   -1.1685 H   0  0  0  0  0  0  0  0  0  0  0  0
    0.9609   -2.5779    0.0945 H   0  0  0  0  0  0  0  0  0  0  0  0
   -0.1439    1.9048   -1.0161 O   0  0  0  0  0  0  0  0  0  0  0  0
    0.4601    1.0695   -1.0697 H   0  0  0  0  0  0  0  0  0  0  0  0
    0.2350    2.4638   -0.2482 H   0  0  0  0  0  0  0  0  0  0  0  0
    0.0405   -2.8832   -0.0756 O   0  0  0  0  0  0  0  0  0  0  0  0
   -0.2033   -3.4814    0.6362 H   0  0  0  0  0  0  0  0  0  0  0  0
   -0.8227   -1.6807   -0.2464 H   0  0  0  0  0  0  0  0  0  0  0  0
    0.9932    2.9822    0.9638 O   0  0  0  0  0  0  0  0  0  0  0  0
    1.5660    2.2149    1.1934 H   0  0  0  0  0  0  0  0  0  0  0  0
    1.5552    3.7585    0.8983 H   0  0  0  0  0  0  0  0  0  0  0  0
   -3.2560    0.5419   -0.0789 C   0  0  0  0  0  0  0  0  0  0  0  0
   -2.5477   -0.8238    0.0613 C   0  0  0  0  0  0  0  0  0  0  0  0
   -4.5163    0.5040    0.2902 O   0  0  0  0  0  0  0  0  0  0  0  0
   -2.7117    1.5482   -0.4801 O   0  0  0  0  0  0  0  0  0  0  0  0
   -3.1704   -1.7559    0.5344 O   0  0  0  0  0  0  0  0  0  0  0  0
   -1.3267   -0.7871   -0.3617 O   0  0  0  0  0  0  0  0  0  0  0  0
   -4.7044   -0.4076    0.5851 H   0  0  0  0  0  0  0  0  0  0  0  0
   -1.0942    1.6643   -0.8375 H   0  0  0  0  0  0  0  0  0  0  0  0
  1  5  2  0  0  0  0
  1  2  1  0  0  0  0
  3  1  2  0  0  0  0
  4  1  1  0  0  0  0
  6  4  1  0  0  0  0
  8 24  1  0  0  0  0
  8 10  1  0  0  0  0
 11  7  1  0  0  0  0
 11 12  1  0  0  0  0
 14 15  1  0  0  0  0
 16 14  1  0  0  0  0
 17 18  1  0  0  0  0
 17 19  1  0  0  0  0
 18 21  2  0  0  0  0
 19 23  1  0  0  0  0
 20 17  2  0  0  0  0
 22 13  1  0  0  0  0
 22 18  1  0  0  0  0
M  RAD  2   2   2   9   2
M  END
$$$$
