1sa_1oa_4w.log
 OpenBabel02281910253D
Gaussian opt/gaussian/g09/g09 # opt freq wb97xd/6-31++g(d,p)
 27 20  0  0  0  0  0  0  0  0999 V2000
   -0.6401   -1.5532   -0.0120 S   0  0  0  0  0  0  0  0  0  0  0  0
   -0.0232   -0.5966   -0.9800 O   0  0  0  0  0  0  0  0  0  0  0  0
   -0.5223   -1.0077    1.3768 O   0  0  0  0  0  0  0  0  0  0  0  0
   -1.9840   -1.9844   -0.3624 O   0  0  0  0  0  0  0  0  0  0  0  0
    0.2623   -2.8627   -0.0561 O   0  0  0  0  0  0  0  0  0  0  0  0
   -3.3225   -0.5697   -0.6165 H   0  0  0  0  0  0  0  0  0  0  0  0
    1.1840   -2.6064    0.1454 H   0  0  0  0  0  0  0  0  0  0  0  0
   -1.5014    1.3236   -1.8400 O   0  0  0  0  0  0  0  0  0  0  0  0
   -0.8840    0.5463   -1.6580 H   0  0  0  0  0  0  0  0  0  0  0  0
   -1.1735    2.0661   -1.2090 H   0  0  0  0  0  0  0  0  0  0  0  0
   -3.5237    0.3827   -0.6564 O   0  0  0  0  0  0  0  0  0  0  0  0
   -2.4100    0.9996   -1.4669 H   0  0  0  0  0  0  0  0  0  0  0  0
   -3.3677    0.7072    0.2491 H   0  0  0  0  0  0  0  0  0  0  0  0
   -2.1382    1.2019    1.6587 O   0  0  0  0  0  0  0  0  0  0  0  0
   -2.4563    1.3924    2.5455 H   0  0  0  0  0  0  0  0  0  0  0  0
   -1.6056    0.3793    1.7147 H   0  0  0  0  0  0  0  0  0  0  0  0
   -0.7118    2.9449   -0.0596 O   0  0  0  0  0  0  0  0  0  0  0  0
   -1.0431    2.4958    0.7408 H   0  0  0  0  0  0  0  0  0  0  0  0
    0.2529    2.9989    0.0232 H   0  0  0  0  0  0  0  0  0  0  0  0
    1.9408    1.0832    0.3974 C   0  0  0  0  0  0  0  0  0  0  0  0
    2.6706   -0.1985   -0.0711 C   0  0  0  0  0  0  0  0  0  0  0  0
    1.1427    0.9838    1.4219 O   0  0  0  0  0  0  0  0  0  0  0  0
    2.1604    2.1332   -0.1784 O   0  0  0  0  0  0  0  0  0  0  0  0
    2.5467   -1.2626    0.4857 O   0  0  0  0  0  0  0  0  0  0  0  0
    3.4493    0.0088   -1.1111 O   0  0  0  0  0  0  0  0  0  0  0  0
    0.7675    0.0669    1.5378 H   0  0  0  0  0  0  0  0  0  0  0  0
    3.3768    0.9471   -1.3628 H   0  0  0  0  0  0  0  0  0  0  0  0
  1  3  1  0  0  0  0
  2  1  2  0  0  0  0
  4  1  2  0  0  0  0
  5  1  1  0  0  0  0
  5  7  1  0  0  0  0
  8  9  1  0  0  0  0
  8 10  1  0  0  0  0
 11  6  1  0  0  0  0
 11 13  1  0  0  0  0
 14 16  1  0  0  0  0
 14 15  1  0  0  0  0
 17 19  1  0  0  0  0
 17 18  1  0  0  0  0
 20 22  1  0  0  0  0
 21 20  1  0  0  0  0
 21 24  2  0  0  0  0
 22 26  1  0  0  0  0
 23 20  2  0  0  0  0
 25 21  1  0  0  0  0
 27 25  1  0  0  0  0
M  RAD  2   3   2  12   2
M  END
$$$$
