40
2msa1fa1dma1ma-1
S        2.70909800       0.27948000      -0.13404100
O        2.46388600      -0.95931800       0.65486800
O        2.51380300       1.52495700       0.64813500
O        1.93039000       0.27556000      -1.40408300
C        4.43197300       0.23986100      -0.58386800
H        5.01841300       0.24972700       0.33495600
H        4.61606000      -0.67328800      -1.14973600
H        4.64470600       1.12168900      -1.18822800
S       -2.68501600       0.11229000      -0.38115000
O       -2.48333600      -0.69164300      -1.61604000
O       -3.10876800       1.50241800      -0.60857300
O       -1.46920900       0.03396800       0.50038000
C       -3.98207100      -0.70605900       0.53063100
H       -4.88428600      -0.69086900      -0.08150400
H       -3.66615300      -1.73125600       0.72638600
H       -4.14188900      -0.16462900       1.46331500
H       -0.99728900      -2.07293700       3.14976700
H        1.33973500      -1.08255900       1.84939000
C       -0.26058700      -2.02496400       2.33825900
O        0.66690600      -1.13678100       2.58656000
O       -0.33308500      -2.74254800       1.35465900
N       -0.10092500       2.35790000       0.29751300
C       -0.17399200       2.82761600      -1.10539300
C       -0.74901200       3.25850000       1.27074200
H       -0.58273700       1.42501700       0.36327500
H        0.28516400       3.81551500      -1.17546900
H        0.37917000       2.11848100      -1.72209800
H       -1.22293400       2.86041200      -1.40311200
H       -0.27521600       4.24081200       1.23165500
H       -1.80733200       3.33353200       1.01564500
H       -0.63791300       2.83129300       2.26762900
H        0.89361800       2.17746200       0.54217300
N        0.03594900      -1.80455300      -1.27605100
H        0.71316300      -1.02265900      -1.35566600
H       -0.00385000      -2.07768500      -0.27731100
C        0.44096600      -2.94938900      -2.11143300
H       -0.29511600      -3.74655400      -2.00848200
H        0.49958700      -2.63568500      -3.15367400
H        1.41558400      -3.30559200      -1.77743700
H       -0.90933300      -1.43827000      -1.51953100
40
2msa1fa1dma1ma-2
S       -2.31260900      -1.07554200       0.57794900
O       -2.37270000      -1.91110800      -0.62854900
O       -2.93358200       0.26943900       0.45108300
O       -0.90617400      -0.94898200       1.10073600
C       -3.22523300      -1.90640800       1.86332200
H       -4.25550700      -2.01562300       1.52377900
H       -2.76842400      -2.88263300       2.02655500
H       -3.17813200      -1.30063200       2.76805400
S        3.17402000       0.31842600       0.11366900
O        3.28688200      -1.15131800      -0.12148500
O        3.02251200       0.69853800       1.52591300
O        2.10355000       0.91271600      -0.75273000
C        4.71492300       1.00590700      -0.46529500
H        4.83107400       0.75818700      -1.52026700
H        4.67802000       2.08616800      -0.32309000
H        5.52005300       0.56831100       0.12533600
H       -3.11808800       3.64354800      -2.31427900
H       -3.26614800       1.21448800      -0.82122800
C       -2.78717800       2.92788200      -1.55082200
O       -3.53658400       1.85733700      -1.53961700
O       -1.83030600       3.15506100      -0.82906600
N        0.82990700      -2.09429200      -0.75858900
C        0.61447600      -3.54564400      -0.59698500
C        0.52340100      -1.58471300      -2.11463400
H        0.21968000      -1.60725600      -0.07067600
H        1.26056900      -4.08727800      -1.28950700
H        0.86123900      -3.82211500       0.42841900
H       -0.43496000      -3.76476300      -0.80049900
H        1.13303800      -2.12651800      -2.83989400
H       -0.53919100      -1.73370900      -2.31004200
H        0.78342400      -0.52579700      -2.13602100
H        1.81558500      -1.82598600      -0.50881100
N       -0.02289900       1.71324100       0.80857300
H       -0.35985300       0.77482000       1.08570600
H        0.79371500       1.54161600       0.18017200
C        0.37362400       2.52216500       1.98090600
H        0.64259900       3.52337800       1.64436600
H       -0.46367100       2.58181800       2.67634800
H        1.23576500       2.04571700       2.44727400
H       -0.77527900       2.16687900       0.26330800
40
2msa1fa1dma1ma-3
S        2.49347100      -1.00024800      -0.38044500
O        2.09329000      -1.81684200       0.79218900
O        2.89615900       0.38777900      -0.02766000
O        1.46179200      -1.00506500      -1.45304800
C        3.95020000      -1.76892000      -1.05811600
H        4.72059900      -1.76763600      -0.28703100
H        3.69468300      -2.78880400      -1.34599700
H        4.26873600      -1.18944200      -1.92454600
S       -3.02915800       0.28950200      -0.11037100
O       -3.53295000      -1.08482000       0.05547800
O       -3.04329800       0.83545700      -1.47423600
O       -1.64280200       0.41644600       0.50495600
C       -4.06300500       1.34604200       0.89203900
H       -4.03176300       0.98714700       1.92079200
H       -3.68333500       2.36575300       0.82487300
H       -5.07663500       1.28746100       0.49437200
H        2.09121800       3.86131800       2.44852100
H        2.75942600       1.35452000       1.26448900
C        2.07222100       3.10226800       1.65607400
O        2.74084000       2.03192900       2.00032600
O        1.48476800       3.28392600       0.60293800
N       -0.66658600      -2.14470300       0.75434100
C       -1.31205900      -2.66516200       1.97687200
C       -0.98327800      -2.92108500      -0.46762000
H       -0.99516100      -1.15893800       0.62206400
H       -0.99710800      -3.69653600       2.14364700
H       -1.01236500      -2.04523900       2.82221600
H       -2.39275800      -2.60887700       1.83878200
H       -0.67458800      -3.95732200      -0.31760700
H       -2.05651600      -2.85158000      -0.64690000
H       -0.42496300      -2.48185300      -1.29431900
H        0.36668200      -2.09198000       0.86676100
N        0.21213400       1.52645000      -1.21077500
H        0.68951300       0.66807900      -1.53292800
H       -0.54430100       1.20008800      -0.56830300
C       -0.34007700       2.33371100      -2.31904700
H       -0.74774100       3.25701800      -1.90863300
H        0.45442400       2.56511300      -3.02857300
H       -1.14261300       1.77206600      -2.79519800
H        0.88031500       2.06776800      -0.63714700
