27
1sa2dma-169
S        1.78483800      -0.19372000       0.01070400
O        1.37712900       0.98571200       0.83094800
O        2.04226900      -1.39004800       0.80859600
O        3.21186700       0.22296900      -0.66150700
O        0.90176700      -0.36473600      -1.15474200
H        3.90065300       0.03502900      -0.01059800
H       -0.17080400       1.35725400       0.47425800
N       -1.73627700      -1.22870800      -0.20322000
H       -0.90710600      -1.33504200      -0.79057400
C       -1.50656300      -1.94905000       1.05043100
H       -0.54238700      -1.65106400       1.47008100
H       -2.30159700      -1.70656600       1.76425300
H       -1.49221700      -3.03892100       0.90873800
C       -2.92640500      -1.68150100      -0.91435400
H       -3.81768200      -1.46432800      -0.31600300
H       -3.01268100      -1.14918000      -1.86545700
H       -2.91131000      -2.76186800      -1.12031500
N       -1.17623600       1.44867200       0.16230800
H       -1.50213600       0.43009200       0.04260700
C       -1.97315600       2.12471700       1.19749700
H       -1.88064100       1.56876600       2.13129400
H       -1.60254800       3.14092800       1.34519800
H       -3.02155500       2.15847200       0.89291800
C       -1.19356700       2.10208800      -1.16030900
H       -0.80882800       3.11988200      -1.07143100
H       -0.54892800       1.52174200      -1.82171400
H       -2.21615400       2.12587700      -1.54407800
27
1sa2dma-104
S       -1.78969700      -0.18871500      -0.02666300
O       -2.08853600      -1.41636300      -0.75978700
O       -0.90120500      -0.37363800       1.14121200
O       -1.34629700       0.95799800      -0.86150000
O       -3.21633700       0.34466700       0.56156500
H       -3.75715000      -0.43574100       0.73940500
N        1.73767400      -1.23160700       0.19984400
H        0.89587000      -1.33005600       0.77114700
C        1.51434700      -1.92614600      -1.06914500
H        0.56848100      -1.59434500      -1.50463200
H        2.33034500      -1.69539000      -1.76290100
H        1.46556700      -3.01716300      -0.94560000
C        2.90590200      -1.72099700       0.92265000
H        3.81165600      -1.51247600       0.34328400
H        2.98689300      -1.20658100       1.88398600
H        2.86503600      -2.80417400       1.10986500
C        1.98984300       2.13484600      -1.17622900
N        1.19057000       1.44917700      -0.14903900
C        1.18686700       2.10212200       1.17386300
H        0.19019200       1.34614000      -0.47161300
H        3.03461400       2.18090200      -0.86108300
H        1.91315100       1.57812400      -2.11098300
H        1.60844800       3.14648600      -1.32752600
H        2.20499000       2.13700100       1.56842000
H        0.79183300       3.11560000       1.08098200
H        0.54133300       1.51446500       1.82790100
H        1.52342700       0.43340000      -0.02843800
27
1sa2dma-148
S       -1.88640100      -0.04262200      -0.12082200
O       -3.27274100       0.12141000      -0.52697000
O       -0.89902300      -0.34628500      -1.17021800
O       -1.38556300       1.02654200       0.79227100
O       -1.85207100      -1.41390000       0.79716500
H       -2.71681700      -1.49292800       1.21985800
H        0.17399400       1.34655800       0.46692700
N        1.71200900      -1.23653400      -0.19175800
H        0.84546400      -1.32519800      -0.72667100
C        2.84058900      -1.74135600      -0.96500700
H        2.88083400      -1.23283000      -1.93185200
H        3.77443200      -1.53867800      -0.42978900
H        2.78026900      -2.82499400      -1.14432900
C        1.53911500      -1.92064200       1.08911500
H        2.39331000      -1.70382300       1.74024300
H        0.62237000      -1.56506500       1.56579000
H        1.46243300      -3.01144500       0.97508600
N        1.18356700       1.44496600       0.16622800
H        1.51241800       0.42966900       0.04026800
C        1.21308800       2.11353800      -1.14871300
H        0.58941200       1.53151700      -1.82850900
H        0.81040400       3.12388200      -1.05510600
H        2.24146300       2.15734500      -1.51477000
C        1.96531300       2.11427000       1.21723700
H        1.58546300       3.12577000       1.37337700
H        1.86799500       1.54673900       2.14359500
H        3.01649500       2.15940400       0.92397500
