32
1msa1dma1tma-01
S        1.98262300      -0.28247500      -0.06999100
O        1.75452800      -1.55914500      -0.76307800
O        1.34797800      -0.19402900       1.26835800
O        1.61046100       0.91429500      -0.90713800
H        0.15891300       1.36967100      -0.43519600
C        3.74543600      -0.13302900       0.18036100
H        4.06655500      -0.96826800       0.80345400
H        4.23239300      -0.17222100      -0.79415600
H        3.94552600       0.81723600       0.67556100
N       -0.82542100       1.57202000      -0.08115900
C       -1.55388300       2.38520600      -1.06665000
C       -0.73428700       2.16773300       1.26463600
H       -1.29724400       0.61334800      -0.00608100
H       -1.05866400       3.35049100      -1.18850200
H       -1.55445200       1.86044900      -2.02304900
H       -2.58226400       2.54153800      -0.73190900
H       -0.25753000       3.14783400       1.19648900
H       -1.73579800       2.27476400       1.68914200
H       -0.12049200       1.50263400       1.87384200
N       -2.08462400      -0.90184000       0.04033600
C       -1.66586500      -1.55984200       1.28073400
H       -0.57481900      -1.59334900       1.32432900
H       -2.02640900      -0.98241000       2.13785100
H       -2.07475900      -2.58104000       1.35167100
C       -3.53295100      -0.73825200      -0.00961800
H       -3.87044400      -0.14259600       0.84448200
H       -3.81619000      -0.22017000      -0.93127100
H       -4.05832300      -1.70746800       0.01587200
C       -1.59536000      -1.63831000      -1.12897300
H       -1.85301200      -1.08982600      -2.04096900
H       -0.50781500      -1.74108600      -1.07510800
H       -2.04909700      -2.64118900      -1.18889900
32
1msa1dma1tma-02
S        2.20668500      -0.34008800       0.08464300
O        2.34792600      -0.74151400       1.48925300
O        2.42594300       1.09959300      -0.18604300
O        0.87930600      -0.77076100      -0.50428800
H       -0.00215300       0.53343600      -0.26983200
C        3.43448900      -1.24172900      -0.84955000
H        4.41573500      -0.94656200      -0.47664500
H        3.27002300      -2.30755200      -0.68972300
H        3.32876600      -0.98608300      -1.90384500
N       -0.64752300       1.35092300      -0.04081600
C       -0.51496900       2.35877900      -1.10724400
C       -0.29946600       1.85002700       1.30596900
H       -1.59476900       0.89692200      -0.02823700
H        0.53730800       2.64010800      -1.17640800
H       -0.83395300       1.91443600      -2.05107000
H       -1.13366500       3.22932700      -0.87831500
H        0.72146700       2.23302000       1.27938500
H       -1.00524500       2.62925300       1.60202300
H       -0.33930700       1.01547900       2.00702900
N       -2.74136700      -0.51873800      -0.01526900
C       -2.16113600      -1.36585100       1.02968600
H       -1.08780000      -1.48515700       0.85182800
H       -2.31039500      -0.89615600       2.00659600
H       -2.62948000      -2.36371400       1.05062700
C       -4.16267400      -0.29132300       0.21251200
H       -4.31037700       0.17855400       1.18901300
H       -4.55960100       0.37732700      -0.55693200
H       -4.74021400      -1.23124800       0.18860500
C       -2.50098000      -1.10304300      -1.33461600
H       -2.88796200      -0.43349700      -2.10928000
H       -1.42562100      -1.23851800      -1.48308200
H       -2.99445900      -2.08297600      -1.44535200
32
1msa1dma1tma-03
S        1.72272200      -0.57025100       0.02012400
O        1.28696900      -1.71656900       0.82591300
O        2.14569800       0.62244700       0.78683600
O        0.68388900      -0.18189100      -1.01458600
C        3.13308400      -1.09824800      -0.94003900
H        3.91938200      -1.38491300      -0.24116800
H        2.83291100      -1.95145600      -1.54872200
H        3.45813900      -0.26860600      -1.56778300
N       -2.03737300      -1.23161300      -0.07012500
C       -2.98542500      -1.70079800      -1.06740500
C       -2.04782300      -2.04787300       1.13683900
H       -1.09729500      -1.24005500      -0.46282400
H       -4.00924500      -1.57084900      -0.69647300
H       -2.88054700      -1.11491600      -1.98621700
H       -2.85656900      -2.76587000      -1.32536300
H       -2.99014700      -1.89711200       1.67772900
H       -1.94333000      -3.12553800       0.92928300
H       -1.21247100      -1.75750000       1.77851600
N       -0.65577600       1.86107600      -0.01622200
C        0.27315500       3.00061800      -0.19671300
H        1.21576900       2.74024900       0.28688000
H        0.44036600       3.15036100      -1.26416300
H       -0.16532000       3.89936300       0.24425800
C       -1.92977600       2.03385600      -0.74865500
H       -1.71220700       2.17643900      -1.80820600
H       -2.51343800       1.12264300      -0.60362000
H       -2.45788800       2.90660200      -0.35588700
C       -0.89050500       1.56660800       1.42040100
H       -1.54087700       0.69282800       1.47382000
H        0.07321800       1.34900400       1.88261000
H       -1.36302200       2.43422700       1.88852200
H       -0.15763500       1.00600800      -0.43061300
