22
1msa1nta2am-22
S       -1.94279400       0.00247800       0.01345300
O       -1.92662600       1.28863300      -0.73886600
O       -0.84890000      -0.05536600       1.02038500
O       -1.94776200      -1.19633500      -0.86753900
H       -0.40953100      -1.99579200      -0.70564600
C       -3.49001500      -0.02652600       0.89636300
H       -3.51605700       0.83025900       1.56964100
H       -4.29550500       0.03214800       0.16422800
H       -3.54600800      -0.96040600       1.45575900
N        2.88603900      -0.01528400       0.10653300
O        3.24031200       1.06591300       0.57920000
O        3.23435600      -1.10836400       0.55423900
O        2.07435500      -0.00173700      -0.91045000
H        1.21336800       1.39724800      -0.67639300
N        0.54738900      -2.13825300      -0.30877900
H        0.46346000      -1.93653500       0.68936800
H        1.19843600      -1.40058400      -0.69263800
H        0.92436100      -3.06823900      -0.46271500
N        0.59577100       2.17009800      -0.30409900
H       -0.40215100       1.97643100      -0.57621500
H        0.92860400       3.07539700      -0.62187900
H        0.65554900       2.11170500       0.71173600
22
1msa1nta2am-11
S        1.91753400       0.00611600      -0.02775200
O        1.86967200       1.42202500      -0.48921900
O        1.79110900      -0.99382100      -1.10535900
O        0.92392900      -0.23345500       1.06986700
H       -0.08897700      -1.53818700       0.56611700
C        3.53376700      -0.19876000       0.69543500
H        4.27478700      -0.01907500      -0.08377700
H        3.64190100       0.52429600       1.50380800
H        3.61453500      -1.21767200       1.07443900
N       -2.82169200      -0.02736600       0.00294700
O       -3.32788300       0.92770700       0.59053200
O       -3.11584100      -1.21342900       0.27897900
O       -1.94431400       0.17220700      -0.90232000
H       -1.22265200       1.55016400      -0.50529600
N       -0.58195200      -2.20512300      -0.07703400
H       -0.39895500      -3.16780400       0.18984100
H       -0.16018300      -2.00408300      -0.98844000
H       -1.60703000      -1.98677800      -0.07558100
N       -0.62696800       2.32693600      -0.08611900
H        0.38655300       2.08630100      -0.26435300
H       -0.80026900       2.32909500       0.91681200
H       -0.88195200       3.22744100      -0.48055900
22
1msa1nta2am-33
S       -1.84767700       0.03819700       0.08675900
O       -1.46130000       1.47768200       0.00436900
O       -1.09900400      -0.69378700       1.14158300
O       -1.78577400      -0.65238500      -1.22613700
C       -3.55883900       0.05487600       0.58499700
H       -3.62773000       0.55664200       1.55014900
H       -4.12789300       0.59247700      -0.17347900
H       -3.89867200      -0.97798100       0.66292400
N        2.67863800      -0.14639700       0.19422400
O        2.03568900      -0.17180800      -0.90977100
O        3.02372000      -1.19575700       0.72748300
O        2.92003300       0.97324700       0.70800800
H        1.74672900       1.95730500       0.03227100
N        0.96995300       2.41583300      -0.51680500
H        0.95428200       3.42157300      -0.37336800
H        0.02745200       1.99541500      -0.25826800
H        1.14856300       2.19861200      -1.49499900
N        0.37704100      -2.24194100      -0.56280400
H       -0.41328100      -2.06335600      -1.19882600
H        0.70072200      -3.20338400      -0.56645900
H        1.15011100      -1.56416100      -0.80570300
H        0.00924900      -1.94354100       0.36102800
