65
4sa1am1ma2tma-47
S       -1.18309800       2.66668000      -0.65129500
O       -2.32148300       2.46601700       0.24297100
O       -0.60097100       4.02082700      -0.68394300
O        0.04002700       1.77948100      -0.10329600
O       -1.43107200       2.14362000      -2.03317800
H       -2.40107400       0.76205800      -2.31078000
H       -0.22826400       1.12496700       0.60652000
S        0.08221000      -0.98274100       2.38975700
O       -0.55171800       0.28642900       1.93018200
O       -0.64630000      -1.62124000       3.47632000
O       -0.02540300      -1.96622500       1.11203300
O        1.53951800      -0.85020000       2.62083100
H        2.31976500       0.27262200       1.83039100
H       -0.60273200      -1.53685700       0.41479300
S        3.20302200       0.41719700      -0.14800700
O        2.75972200       0.99502400       1.27751600
O        4.37109600      -0.43933200       0.03124200
O        2.02138400      -0.36349100      -0.64969000
O        3.40706700       1.63943300      -0.95311500
H        2.48739600       3.03060700      -0.34925900
S       -2.09266700      -1.32539500      -1.86779900
O       -3.09534900      -2.35821400      -1.66412500
O       -2.86970500      -0.08803800      -2.52491400
O       -1.54431500      -0.75330100      -0.59246200
O       -0.98164200      -1.69222100      -2.78006200
N        0.65150300       0.52428500      -2.82521000
H       -0.03627100       1.28302800      -2.64065100
H        1.28247400       0.77194300      -3.58072100
H        1.18730300       0.33840900      -1.94684500
H        0.10951100      -0.34241400      -3.02931000
N        1.98900000       3.64820500       0.32498200
H        1.76697600       3.00177800       1.08667400
H        1.07809000       3.94144400      -0.08628300
C        2.83460300       4.77373100       0.76816600
H        3.75705100       4.37799500       1.19236100
H        3.06553600       5.40309100      -0.09062500
H        2.29852000       5.35762300       1.51586000
N       -3.49865400      -0.09440300       1.38451000
C       -4.56952000       0.30983000       0.43478200
C       -3.58163700      -1.54428900       1.71265300
C       -3.49473700       0.74930700       2.60794000
H       -2.76398100      -1.79778600       2.38956300
H       -4.54347200      -1.73175200       2.19499400
H       -3.50375600      -2.11174700       0.78409900
H       -4.39672600       1.34641800       0.14907400
H       -4.51831800      -0.33151000      -0.44503900
H       -5.53443400       0.19288000       0.93256100
H       -3.33676700       1.78365000       2.30582300
H       -4.45586300       0.62811300       3.11231200
H       -2.67545300       0.42269200       3.24651800
H       -2.59827900       0.04898500       0.89808800
N        2.18520500      -3.07850300      -0.49412700
C        1.00701600      -3.90564500      -0.86685000
C        3.20081800      -3.06083300      -1.57806100
C        2.78487200      -3.48485700       0.80431400
H        3.99083300      -2.36285200      -1.29840500
H        3.59756100      -4.07008700      -1.70663200
H        2.71886300      -2.73001600      -2.49846500
H        0.32900100      -3.94785500      -0.01703800
H        0.49963000      -3.43791800      -1.71375700
H        1.35426600      -4.90669200      -1.13194500
H        2.02336700      -3.39806700       1.57717900
H        3.14265900      -4.51344200       0.72040700
H        3.60756500      -2.80390100       1.02556500
H        1.88285800      -2.08635700      -0.37874600
65
4sa1am1ma2tma-24
S       -2.45159600       2.51430100      -0.41880400
O       -1.93463000       1.61692000      -1.66653400
O       -1.62807000       3.73044400      -0.52801700
O       -2.08087600       1.68767800       0.78370900
O       -3.88873800       2.68565000      -0.53467300
H       -0.76542700       0.96946800       0.73689400
H       -2.19734900       0.66526000      -1.49232600
S       -2.06756800      -2.10931000      -1.63542200
O       -1.10565800      -1.91968700      -2.74317400
O       -2.21137600      -0.81640500      -0.87091600
O       -3.33762500      -2.72744200      -1.96591300
O       -1.38588400      -3.10146800      -0.57717300
H       -0.59050300      -2.63896800      -0.20353300
S        0.51607700      -0.71720600       1.37959500
O        0.69634600      -1.71914300       0.28983500
O        0.21259700       0.67883700       0.65582200
O       -0.61343500      -1.00406500       2.25964000
O        1.82108000      -0.48205100       2.04731800
H        2.72612500       0.79551900       1.35283300
S        3.52330500       1.26566100      -0.62154300
O        2.86112000      -0.04837600      -0.89442100
O        3.18721700       1.56933700       0.93859100
O        4.97082700       1.21494000      -0.74064500
O        2.85058000       2.36126000      -1.35400800
H        1.61881500       3.18685100      -0.42358400
N        0.53052200       0.25508100      -2.36302200
H       -0.11705500       0.94793900      -1.96711300
H        1.32744200       0.09344700      -1.71119700
H       -0.01674200      -0.62573100      -2.52238800
H        0.89496600       0.61092100      -3.24293100
N        0.96782600       3.44008200       0.34860800
H        0.89685700       2.57599800       0.89610200
H        0.01302500       3.63802800      -0.02691500
C        1.50812000       4.55400900       1.15514900
H        2.48873700       4.26569900       1.53272400
H        1.59690000       5.43677600       0.52310100
H        0.82900600       4.76198300       1.98154500
N       -3.71164700      -0.78851700       1.44191300
C       -3.65656900      -2.25045900       1.70440500
C       -3.64112700      -0.00126500       2.69863400
C       -4.89249300      -0.41702400       0.61539900
H       -3.64803700       1.05600100       2.44069700
H       -4.50177900      -0.26249100       3.31831300
H       -2.70719000      -0.24724800       3.20294600
H       -3.69383300      -2.78117600       0.75322700
H       -2.71635000      -2.46904000       2.21012700
H       -4.51008600      -2.52447100       2.32817800
H       -4.86285300      -1.00193700      -0.30437600
H       -5.79878300      -0.63741400       1.18356700
H       -4.83161700       0.64703800       0.37910100
H       -2.88764500      -0.56781700       0.85537600
N        3.52336200      -2.41487600       0.39926600
C        2.96660900      -3.45562100       1.29899700
C        3.79280100      -2.93921800      -0.96339200
C        4.72245900      -1.76380700       0.98989200
H        4.14007800      -2.11142000      -1.58013500
H        4.54752200      -3.72559000      -0.89982300
H        2.86231800      -3.33662500      -1.36986600
H        2.71773700      -2.98649200       2.25044400
H        2.06142600      -3.85907700       0.84826900
H        3.71556600      -4.23830000       1.43610400
H        4.43291000      -1.32072700       1.94281300
H        5.49376000      -2.52205600       1.14016800
H        5.07590400      -0.98412100       0.31374500
H        2.80561700      -1.67887700       0.27930800
65
4sa1am1ma2tma-45
S        1.54992200       0.77658900       2.48645200
O        1.20898200       2.14966500       2.05412900
O        1.50015400       0.50465800       3.90936000
O        0.35844900      -0.15347200       1.86960000
O        2.79410000       0.28439100       1.82237400
H        3.15490300       0.94889300       0.42878300
H       -0.02109400       0.29759600       1.08758800
S       -1.75136600      -2.26995000      -1.44705700
O       -1.26525600      -1.64377200      -2.69749900
O       -1.85624200      -3.71511000      -1.43814200
O       -0.58468200      -1.95140800      -0.35225300
O       -2.96322600      -1.57491800      -0.91919600
H       -3.16078300      -0.06922200      -1.36360000
H       -0.08297600      -1.16210600      -0.64429100
S       -2.37851600       1.78048100      -0.56564600
O       -3.20598100       0.90966700      -1.61161900
O       -3.29364600       2.36658400       0.40405600
O       -1.41086800       0.82260300       0.05108400
O       -1.66378900       2.75857900      -1.43313700
S        2.51876000       0.47471100      -1.58053000
O        3.28952000       1.34680700      -0.49065800
O        1.42279900      -0.20175400      -0.82248000
O        1.95975500       1.50747600      -2.49650800
O        3.44892100      -0.46396600      -2.19223100
N       -0.61561400       0.92751500      -3.38043800
H       -0.90798700      -0.03003100      -3.06785900
H       -0.81080300       1.02905300      -4.37252100
H       -1.13221500       1.64219600      -2.83778200
H        0.39748700       1.06515500      -3.18772100
C        1.41468800       4.66133400      -0.24548200
N        0.90719500       3.28687700      -0.43835300
H        1.42127800       2.79066700      -1.18275500
H        1.01804000       2.74355300       0.44585600
H        1.28788400       5.22934800      -1.16681600
H        0.85747900       5.13336500       0.56282600
H        2.47024200       4.60915700       0.01880300
H       -0.09173700       3.25840000      -0.71261000
N        2.50406800      -2.49704200       0.37430600
C        2.25897900      -3.34940200      -0.82253900
C        3.95974400      -2.28288500       0.59751000
C        1.82839400      -3.02770800       1.58496200
H        4.08008100      -1.60324400       1.44008200
H        4.42471400      -3.24955000       0.80222400
H        4.38021700      -1.83877900      -0.30576900
H        1.18393700      -3.47329200      -0.94811400
H        2.68270600      -2.84160900      -1.68961000
H        2.74242700      -4.31577300      -0.66522900
H        0.76031700      -3.08395800       1.37694800
H        2.23323400      -4.01811700       1.80416700
H        2.01412100      -2.34441300       2.41316900
H        2.08538400      -1.56932300       0.15956900
N       -2.80893400      -0.56633700       2.05730600
C       -4.25224700      -0.58442700       1.69432900
C       -2.31454500      -1.91553200       2.43063300
C       -2.52914500       0.44625700       3.11334100
H       -1.24256100      -1.84285000       2.61122600
H       -2.83824300      -2.24164200       3.33187000
H       -2.51137700      -2.59641600       1.60294800
H       -4.53509900       0.41896100       1.37325600
H       -4.39110500      -1.29305800       0.87890300
H       -4.82651500      -0.88184500       2.57427100
H       -2.80727600       1.42545100       2.72212600
H       -3.12197900       0.19930400       3.99647900
H       -1.46534100       0.42315100       3.34639900
H       -2.28228700      -0.25947200       1.21435600
