29
3sa2am-22
S       -1.64411000      -1.89191700      -0.02795900
O       -2.02325700      -1.65623000       1.37193300
O       -1.93992200      -0.76034500      -0.93495000
O       -0.26683300      -2.40857100      -0.17319900
O       -2.61739200      -3.04132400      -0.59244900
H       -2.52946300      -3.83046900      -0.03888700
H        0.81918100      -0.60860000       2.48895100
S        2.78421300      -0.45136600       0.06625000
O        2.30400000      -0.84946400       1.38591900
O        4.14357300      -0.69545000      -0.31283100
O        1.82481300      -1.15395600      -1.00917200
O        2.48281400       1.06452300      -0.18713900
H        1.55035100       1.31635800       0.12911900
H        1.06983900      -1.65926600      -0.57872600
S       -0.91330800       2.46646400       0.05071300
O        0.09211000       1.46866800       0.60998600
O       -0.99527600       3.69603600       0.79580700
O       -0.69320200       2.57860600      -1.40884800
O       -2.31648100       1.72764100       0.27584100
H       -2.30518700       0.84693900      -0.16099100
H       -0.19539100       1.27942700      -2.22489300
N       -0.03121400       0.31632000      -2.63949800
H       -0.79707000      -0.27191500      -2.26455500
H        0.85433100      -0.07263200      -2.28997400
H       -0.04260900       0.34369500      -3.65507100
N       -0.09059800      -0.17410200       2.70254900
H       -0.85473600      -0.81059700       2.40251800
H       -0.13729400       0.66440600       2.07586300
H       -0.16756100       0.07514600       3.68403500
29
3sa2am-7
S       -2.85597100      -0.46761700       0.08515100
O       -2.47419800      -0.45181500       1.49308200
O       -4.15603100      -0.91837900      -0.31172500
O       -2.65089700       0.96592100      -0.53442900
O       -1.76311600      -1.33179100      -0.69784400
H       -0.97805900      -1.55959200      -0.12308600
H       -1.71944500       1.29407800      -0.35066100
S        1.75264100      -1.77787800      -0.01891300
O        1.63382900      -1.83120800      -1.48574300
O        2.59177000      -0.67737300       0.47987400
O        0.44564100      -1.86518700       0.68233100
O        2.46347500      -3.14650700       0.43859800
H        3.35902400      -3.17288900       0.07206500
S        0.91374600       2.37625300       0.02291600
O        1.09481500       2.37579300       1.48705200
O       -0.11927400       1.30869400      -0.32994900
O        0.67367200       3.64115100      -0.62642000
O        2.25243900       1.79486400      -0.63616200
H        2.48673300       0.93962700      -0.20271800
N       -0.02943800      -0.00645000      -2.64911500
H       -0.04355100       0.66462000      -1.83231900
H        0.66620100      -0.73970900      -2.39069400
H       -0.95101700      -0.43998200      -2.71213500
H        0.22103800       0.46504000      -3.51388600
N        0.02604500       0.14668400       2.60075400
H        0.38568300      -0.65543300       2.05546300
H        0.47138500       1.02967600       2.23958200
H       -0.98599500       0.16305200       2.40854200
H        0.20807800       0.02446500       3.59259500
29
3sa2am-2
S        2.79984300      -0.58377600       0.07713200
O        2.33828200      -0.43848400       1.45111800
O        4.08171800      -1.15505500      -0.20976900
O        1.69334200      -1.40468200      -0.71793500
O        2.76324100       0.82415600      -0.63957800
H        1.89401800       1.29154100      -0.51554600
H        0.81282700      -1.46349700      -0.20748800
S       -0.77110600       2.26493400       0.03599900
O        0.36986600       1.89428500      -0.85752300
O       -2.01443000       1.62767500      -0.42781900
O       -0.45471900       2.14490800       1.45614500
O       -0.98107300       3.84955100      -0.15505100
H       -1.45990100       4.00536300      -0.98087200
S       -1.90976800      -1.84302800      -0.05589300
O       -0.55573600      -1.37512000       0.46333000
O       -1.91697700      -1.71043800      -1.53042000
O       -2.33490500      -3.10585400       0.49158800
O       -2.91551900      -0.75010000       0.53310100
H       -2.67969100       0.13886000       0.17495000
N       -0.06640200      -0.21594400       2.80995000
H       -0.52053700      -0.42526100       3.69363200
H       -0.39562200      -0.83911600       2.03111700
H       -0.26483500       0.74979600       2.48565900
H        0.94981300      -0.33164500       2.85279100
N       -0.03247200      -0.20032600      -2.64465000
H        0.02500900       0.68753700      -2.10635900
H       -0.15711300      -0.02404600      -3.63741300
H        0.83552500      -0.71507800      -2.46695400
H       -0.83557900      -0.77737300      -2.25393200
