1b_2w.log
 OpenBabel02281910063D
Gaussian kemi/andersx/programs/g09/g09 # opt freq 6-31++g(d,p) wb97xd
 12  9  0  0  0  0  0  0  0  0999 V2000
   -0.0195   -0.4448   -0.1107 S   0  0  0  0  0  0  0  0  0  0  0  0
    1.1996   -1.2483   -0.0236 O   0  0  0  0  0  0  0  0  0  0  0  0
   -1.0408   -0.9167   -1.0646 O   0  0  0  0  0  0  0  0  0  0  0  0
   -0.7065   -0.6390    1.3745 O   0  0  0  0  0  0  0  0  0  0  0  0
    0.2157    1.0189   -0.2204 O   0  0  0  0  0  0  0  0  0  0  0  0
   -1.5227   -0.1099    1.3551 H   0  0  0  0  0  0  0  0  0  0  0  0
    3.1345    1.0185    0.0284 O   0  0  0  0  0  0  0  0  0  0  0  0
    2.9088    0.0786    0.0644 H   0  0  0  0  0  0  0  0  0  0  0  0
    2.2497    1.4022   -0.0658 H   0  0  0  0  0  0  0  0  0  0  0  0
   -2.6710    1.2183    0.0367 O   0  0  0  0  0  0  0  0  0  0  0  0
   -2.5631    0.4745   -0.5771 H   0  0  0  0  0  0  0  0  0  0  0  0
   -1.8111    1.6583   -0.0525 H   0  0  0  0  0  0  0  0  0  0  0  0
  1  2  1  0  0  0  0
  1  4  1  0  0  0  0
  3  1  2  0  0  0  0
  5  1  2  0  0  0  0
  6  4  1  0  0  0  0
  7  8  1  0  0  0  0
  9  7  1  0  0  0  0
 11 10  1  0  0  0  0
 12 10  1  0  0  0  0
M  RAD  1   2   2
M  END
$$$$
