1b_5w.log
 OpenBabel02281910063D
Gaussian kemi/andersx/programs/g09/g09 # opt freq 6-31++g(d,p) wb97xd
 21 15  0  0  0  0  0  0  0  0999 V2000
    0.0961   -1.0763   -0.1666 S   0  0  0  0  0  0  0  0  0  0  0  0
   -0.1323   -0.0698   -1.2404 O   0  0  0  0  0  0  0  0  0  0  0  0
    1.2418   -1.9548   -0.4020 O   0  0  0  0  0  0  0  0  0  0  0  0
    0.1137   -0.4403    1.1797 O   0  0  0  0  0  0  0  0  0  0  0  0
   -1.1895   -2.0412   -0.1941 O   0  0  0  0  0  0  0  0  0  0  0  0
   -0.4405    1.7235   -0.8676 H   0  0  0  0  0  0  0  0  0  0  0  0
   -3.1053   -0.1192   -0.3588 O   0  0  0  0  0  0  0  0  0  0  0  0
   -2.8391    0.4997    0.3624 H   0  0  0  0  0  0  0  0  0  0  0  0
   -1.9938   -1.4592   -0.1886 H   0  0  0  0  0  0  0  0  0  0  0  0
   -2.6806    0.2438   -1.1446 H   0  0  0  0  0  0  0  0  0  0  0  0
   -0.4068    2.6460   -0.5528 O   0  0  0  0  0  0  0  0  0  0  0  0
    0.5506    2.7731   -0.4625 H   0  0  0  0  0  0  0  0  0  0  0  0
    2.6893    1.2522   -0.1612 H   0  0  0  0  0  0  0  0  0  0  0  0
    2.3249    1.7425   -0.9207 O   0  0  0  0  0  0  0  0  0  0  0  0
    1.7619    1.0875   -1.3570 H   0  0  0  0  0  0  0  0  0  0  0  0
   -1.2021    0.8044    1.6282 H   0  0  0  0  0  0  0  0  0  0  0  0
   -1.8984    1.4787    1.5134 O   0  0  0  0  0  0  0  0  0  0  0  0
   -1.4504    2.1415    0.9544 H   0  0  0  0  0  0  0  0  0  0  0  0
    2.8829   -0.9006    0.6440 H   0  0  0  0  0  0  0  0  0  0  0  0
    2.9446   -0.1032    1.1894 O   0  0  0  0  0  0  0  0  0  0  0  0
    2.0424   -0.0555    1.5481 H   0  0  0  0  0  0  0  0  0  0  0  0
  1  4  1  0  0  0  0
  2  1  2  0  0  0  0
  3  1  2  0  0  0  0
  5  9  1  0  0  0  0
  5  1  1  0  0  0  0
  6 11  1  0  0  0  0
  7  8  1  0  0  0  0
 10  7  1  0  0  0  0
 11 12  1  0  0  0  0
 14 13  1  0  0  0  0
 15 14  1  0  0  0  0
 17 16  1  0  0  0  0
 18 17  1  0  0  0  0
 19 20  1  0  0  0  0
 20 21  1  0  0  0  0
M  RAD  1   4   2
M  END
$$$$
