2sa_1b_3w.log
 OpenBabel02281910063D
Gaussian kemi/andersx/programs/g09/g09 # opt freq 6-31++g(d,p) wb97xd
 29 23  0  0  0  0  0  0  0  0999 V2000
    0.2305   -1.9096    1.7119 O   0  0  0  0  0  0  0  0  0  0  0  0
    2.8265   -0.9156    1.0982 O   0  0  0  0  0  0  0  0  0  0  0  0
    3.6281   -0.9271   -0.1196 S   0  0  0  0  0  0  0  0  0  0  0  0
    2.6731   -0.5811   -1.3361 O   0  0  0  0  0  0  0  0  0  0  0  0
    4.3989   -2.0920   -0.4646 O   0  0  0  0  0  0  0  0  0  0  0  0
    4.6241    0.2916   -0.0943 O   0  0  0  0  0  0  0  0  0  0  0  0
   -1.0011   -1.9966   -0.6845 O   0  0  0  0  0  0  0  0  0  0  0  0
    0.7762    2.3878    0.7554 O   0  0  0  0  0  0  0  0  0  0  0  0
   -0.2011    1.4280    0.2451 S   0  0  0  0  0  0  0  0  0  0  0  0
    0.3521    0.4961   -0.7788 O   0  0  0  0  0  0  0  0  0  0  0  0
   -1.2849    2.3190   -0.5055 O   0  0  0  0  0  0  0  0  0  0  0  0
   -0.9263    0.6812    1.3059 O   0  0  0  0  0  0  0  0  0  0  0  0
   -3.4942    0.0280    1.2415 O   0  0  0  0  0  0  0  0  0  0  0  0
   -3.9310   -0.3359   -0.2381 S   0  0  0  0  0  0  0  0  0  0  0  0
   -3.1644    0.5278   -1.1485 O   0  0  0  0  0  0  0  0  0  0  0  0
   -5.3680   -0.2932   -0.2779 O   0  0  0  0  0  0  0  0  0  0  0  0
   -3.4696   -1.8036   -0.4458 O   0  0  0  0  0  0  0  0  0  0  0  0
   -0.1143   -1.0158    1.8678 H   0  0  0  0  0  0  0  0  0  0  0  0
    1.1811   -1.7721    1.5722 H   0  0  0  0  0  0  0  0  0  0  0  0
    1.8280   -0.1439   -1.0283 H   0  0  0  0  0  0  0  0  0  0  0  0
   -0.5545   -2.1451    0.1856 H   0  0  0  0  0  0  0  0  0  0  0  0
   -2.4234   -1.8860   -0.5569 H   0  0  0  0  0  0  0  0  0  0  0  0
   -0.6160   -1.1565   -0.9900 H   0  0  0  0  0  0  0  0  0  0  0  0
    4.1167    1.1666   -0.0694 H   0  0  0  0  0  0  0  0  0  0  0  0
   -2.5292    0.2800    1.2781 H   0  0  0  0  0  0  0  0  0  0  0  0
   -2.0242    1.7330   -0.8110 H   0  0  0  0  0  0  0  0  0  0  0  0
    3.2881    2.5003   -0.2178 O   0  0  0  0  0  0  0  0  0  0  0  0
    3.1023    2.6959   -1.1407 H   0  0  0  0  0  0  0  0  0  0  0  0
    2.4078    2.4820    0.2213 H   0  0  0  0  0  0  0  0  0  0  0  0
  1 18  1  0  0  0  0
  3  6  1  0  0  0  0
  3  2  2  0  0  0  0
  4 20  1  0  0  0  0
  4  3  1  0  0  0  0
  5  3  2  0  0  0  0
  6 24  1  0  0  0  0
  7 21  1  0  0  0  0
  9  8  2  0  0  0  0
  9 12  1  0  0  0  0
 10  9  2  0  0  0  0
 11  9  1  0  0  0  0
 13 25  1  0  0  0  0
 14 13  1  0  0  0  0
 15 14  2  0  0  0  0
 16 14  2  0  0  0  0
 17 14  1  0  0  0  0
 19  1  1  0  0  0  0
 22 17  1  0  0  0  0
 23  7  1  0  0  0  0
 26 11  1  0  0  0  0
 27 29  1  0  0  0  0
 28 27  1  0  0  0  0
M  RAD  1  12   2
M  END
$$$$
