30
1sa1msa1am1dma-01
S        2.23674800       0.38301200       0.33385100
O        3.53697300       1.01521200       0.38074700
O        1.26862200       1.38522700       1.16636800
O        1.61100200       0.33960700      -1.03483600
O        2.10929100      -0.94758800       0.96950300
H        0.95736000       1.75200100      -1.36705000
H       -0.63128300      -1.54006900      -0.59422300
S       -2.13847000       0.48446600       0.07691700
O       -2.06428400      -0.59821800      -0.93764700
O       -2.01202300       1.84640800      -0.50942500
O       -1.19111800       0.24531000       1.19981300
H        0.38016500       0.96206400       1.27843900
C       -3.77526400       0.42150600       0.77575400
H       -4.49398500       0.58111800      -0.02803300
H       -3.91336700      -0.56024900       1.22880900
H       -3.85282800       1.20697100       1.52739400
N        0.41546700       2.67167800      -1.32099900
H       -0.57303600       2.41916300      -1.05291400
H        0.44765300       3.18234600      -2.19794400
H        0.83048100       3.21767900      -0.56728600
N        0.08847100      -2.23289100      -0.30052000
C        0.71973700      -2.81953900      -1.49943600
C       -0.55260800      -3.20234000       0.60770000
H        0.82629600      -1.70690500       0.23088900
H       -0.04169100      -3.30797900      -2.10989900
H        1.19381200      -2.00853900      -2.05241700
H        1.47434300      -3.54336800      -1.18809100
H       -1.34257200      -3.73358500       0.07402400
H        0.19648300      -3.90787800       0.97032000
H       -0.97675000      -2.64936600       1.44602500
30
1sa1msa1am1dma-02
S       -2.14546100      -0.85857600      -0.23511900
O       -1.23149300      -0.28495800      -1.44108900
O       -1.56639300      -0.16363800       0.99547900
O       -3.48400600      -0.40929000      -0.54872200
O       -1.88470000      -2.29950900      -0.13809600
H       -0.06536000      -2.62424500       0.93810100
S        2.25128300      -0.19113300      -0.22417300
O        2.39852300      -0.55121800       1.21418300
O        1.95069000       1.24836100      -0.43482600
O        1.28402700      -1.09249900      -0.90731100
H       -0.30771700      -0.62921000      -1.34419900
C        3.83622800      -0.47333200      -0.98420900
H        4.56587900       0.17207100      -0.49529600
H        4.09375500      -1.52361000      -0.84801300
H        3.74971400      -0.23089400      -2.04331800
N        0.18209800      -2.06715300       1.76386100
H        1.13016700      -1.64062200       1.64976000
H        0.09737000      -2.62063600       2.61042500
H       -0.51960800      -1.28516100       1.73013900
N       -0.50950900       2.20988700       0.27172900
C       -0.19173300       3.04217100       1.44843400
C       -1.35578500       2.86791800      -0.74680200
H        0.38954300       1.88112300      -0.14478500
H       -1.11561100       3.30297100       1.96693000
H        0.45962500       2.46963100       2.10909500
H        0.32414900       3.94760000       1.12513400
H       -2.30640100       3.14890900      -0.29133000
H       -0.84357900       3.75320300      -1.12726900
H       -1.53485600       2.15176200      -1.54828200
H       -0.98380200       1.32478000       0.59098300
30
1sa1msa1am1dma-04
S        2.27951700      -0.56853400      -0.29075900
O        1.53432200       0.00890200       0.88762100
O        1.42213200      -0.08597300      -1.56616300
O        3.59928300      -0.01691200      -0.49960400
O        2.17967100      -2.04896200      -0.24220200
H        1.01757100      -2.48077700       0.83360100
S       -2.23999800      -0.40210900      -0.14700300
O       -2.30778100       0.87871600       0.60914200
O       -2.07351100      -1.58534000       0.74006800
O       -1.24309200      -0.35339000      -1.24532300
H        0.47741000      -0.35057300      -1.45778400
C       -3.83135500      -0.60893900      -0.91867900
H       -4.58731300      -0.63113700      -0.13394600
H       -3.99445600       0.23315400      -1.59123500
H       -3.81791800      -1.54805700      -1.47175200
N        0.32853100      -2.40700900       1.63365500
H       -0.61979500      -2.13179200       1.26480100
H        0.68287900      -1.62335800       2.18446600
H        0.28144500      -3.25941500       2.18286600
N        0.07092400       2.21721600       0.43729100
C        0.23376900       2.81502300      -0.90549200
C        0.33264300       3.14668700       1.55267100
H       -0.88837500       1.80892000       0.52150500
H        1.28365200       3.06499300      -1.06274700
H       -0.07673100       2.08015200      -1.64619200
H       -0.38652200       3.71049800      -0.97617500
H        1.35310400       3.52448200       1.47355700
H       -0.37645500       3.97516600       1.51200300
H        0.21460500       2.60864300       2.49318000
H        0.70987200       1.38498500       0.54209700
