39
2sa1nta2dma-1
N        1.94355000      -2.16933500       0.84423200
C        3.26516100      -2.75776200       0.54568200
C        1.20741500      -2.81099100       1.95303700
H        2.07803800      -1.16145500       1.06050500
H        3.13691400      -3.80420000       0.26546300
H        3.70516100      -2.19996700      -0.28096000
H        3.90286900      -2.67943200       1.42729400
H        1.05061200      -3.86464100       1.71811800
H        1.78282300      -2.71330000       2.87485200
H        0.24576400      -2.30737300       2.05073300
H        1.34509400      -2.21180700      -0.01184100
N       -0.90997000       2.18441200       0.23259300
C       -1.54457800       2.77903100      -0.96610100
C       -1.33120100       2.78780400       1.51487400
H       -1.08626300       1.16002500       0.25594600
H       -1.24681300       3.82609300      -1.03990400
H       -1.20201000       2.22415000      -1.83929800
H       -2.62617800       2.69227200      -0.87277700
H       -1.09404800       3.85262000       1.50280200
H       -2.40279400       2.63393100       1.64135200
H       -0.78592500       2.29984000       2.32294000
H        0.12390100       2.26145600       0.14085500
N       -4.12617600      -0.20652500       0.66439000
O       -3.48115100       0.76827000       0.29844200
O       -4.91285000      -0.24482100       1.57672200
O       -3.95919700      -1.35077300      -0.00896300
H       -3.20936800      -1.21444700      -0.67851500
S       -0.64818700      -1.11303700      -1.15530100
O       -0.62709800      -0.57590900       0.23183400
O        0.20834800      -2.30710300      -1.27739900
O       -2.00671900      -1.25930800      -1.69893800
O       -0.00453700       0.03021800      -2.08123100
H        0.94933400       0.13280400      -1.83066300
S        2.66784800       1.17707700       0.08224900
O        1.83020400       2.38811100      -0.01377700
O        2.61334000       0.48258700       1.37479800
O        2.48893900       0.26453400      -1.07118100
O        4.19920400       1.69679700       0.01404600
H        4.29782300       2.25962300      -0.76634600
39
2sa1nta2dma-3
N        2.87437400      -0.62381600       0.19183200
C        3.69347600      -0.11759100      -0.93385400
C        3.65768500      -1.25606700       1.27467400
H        2.29444900       0.16373800       0.55609100
H        4.20855000      -0.95534100      -1.40581300
H        3.03214000       0.37737500      -1.64444900
H        4.41728100       0.60347300      -0.55128500
H        4.21649200      -2.09778600       0.86285700
H        4.34784600      -0.52062100       1.69059200
H        2.97141000      -1.60340200       2.04434500
H        2.17132700      -1.29379100      -0.18275300
N       -2.77191600       0.63909000      -0.04227100
C       -3.41525900       0.71864300      -1.37356800
C       -3.70297200       0.82776300       1.09154900
H       -2.28674000      -0.27614200       0.04215100
H       -3.85949500       1.70736600      -1.49452400
H       -2.64906300       0.55155200      -2.12976500
H       -4.18474100      -0.05162300      -1.44446200
H       -4.15316700       1.81867200       1.01878400
H       -4.47794300       0.06137800       1.04584400
H       -3.14240300       0.73402100       2.01987400
H       -2.00837200       1.35138200      -0.00963500
N       -0.43146300      -0.87009200       2.58431000
O        0.71022700      -1.23706000       2.36404300
O       -1.30686400      -1.48716400       3.13514900
O       -0.76535900       0.37391200       2.18775200
H        0.02653700       0.75905600       1.66167100
S        0.66786000       2.37228100      -0.27358900
O        1.09153100       1.36106500       0.77846700
O       -0.80082800       2.52645000      -0.22521700
O        1.45958500       3.57804000      -0.25559700
O        1.02179400       1.65448300      -1.66610100
H        0.43003700       0.87189900      -1.81432100
S       -0.41664300      -1.74474900      -1.26227200
O        0.96947500      -2.19270300      -1.04047200
O       -1.27558900      -1.72203000      -0.07411300
O       -0.49636800      -0.49363500      -2.05379600
O       -1.10177000      -2.88909600      -2.18176600
H       -0.51483800      -3.07254600      -2.92812400
39
2sa1nta2dma-5
N       -2.92645000       1.53046500       0.69910900
C       -3.58327300       1.21388500       1.98466400
C       -3.17656300       2.89240800       0.18013500
H       -1.88722500       1.40657300       0.80729700
H       -4.66282200       1.32904800       1.87711000
H       -3.34323400       0.18112200       2.23955300
H       -3.20962600       1.89120300       2.75387700
H       -4.24733700       3.03168200       0.02397800
H       -2.80353900       3.62157700       0.90051400
H       -2.63874700       3.00355700      -0.76160400
H       -3.21270200       0.81474300       0.00183100
N        0.94167100      -1.49507500       0.92296800
C        1.42003100      -1.22061600       2.29551200
C        1.31247300      -2.82465400       0.39093300
H       -0.09060000      -1.41383400       0.90754100
H        2.50621800      -1.30609400       2.31432700
H        1.11632800      -0.20653700       2.55554400
H        0.96793800      -1.94045100       2.97970100
H        2.39885200      -2.89949800       0.34870500
H        0.89886000      -3.59441700       1.04396100
H        0.88586800      -2.91856100      -0.60763500
H        1.29723100      -0.75099000       0.29085200
N        4.66893900      -0.05010500      -0.10624500
O        3.87529400      -0.88769600       0.30782600
O        5.86980100      -0.11565100      -0.06838800
O        4.16318300       1.06329000      -0.66053700
H        3.15791000       0.97976700      -0.63568100
S        0.45535500       1.69566500      -0.36793300
O        1.59279000       0.75560900      -0.62166500
O       -0.24912500       1.25526900       0.87328300
O        0.77242000       3.10265200      -0.44323400
O       -0.59051100       1.42509000      -1.55909400
H       -0.74082100       0.44980900      -1.64789400
S       -2.25016000      -1.56960700      -0.60718700
O       -3.41562900      -0.70172600      -0.86310700
O       -1.08907700      -1.24235100      -1.46493100
O       -1.89340200      -1.69582600       0.81421100
O       -2.69852600      -3.07030700      -1.01149200
H       -2.99853800      -3.06558300      -1.93132400
