15
1sa1oa-2
S       -2.30280000      -0.08074400      -0.07030000
O       -1.42236100      -1.20877600      -0.32544800
O       -3.66236200      -0.07580200      -0.52686700
O       -2.27091400       0.06921200       1.52963000
H       -2.97141000       0.67676700       1.81066000
O       -1.62007300       1.24025600      -0.56752000
H       -0.62671000       1.18971800      -0.43083800
C        3.18970000       0.17303200       0.04636400
O        3.70714200       1.25213100       0.13682000
O        3.82647000      -0.99695700       0.05496700
C        1.66453000       0.00930800      -0.09738300
O        0.96651500       1.00288100      -0.19221500
O        1.25940700      -1.23025700      -0.09824900
H        0.27338200      -1.27455500      -0.18127700
H        4.77356000      -0.81559900       0.14342500
15
1sa1oa
S       -2.15523300      -0.10155700      -0.08002300
O       -1.15554300      -1.07435400      -0.47063200
O       -3.52939300      -0.22976600      -0.46896800
O       -2.05128800      -0.05646800       1.52275300
O       -1.68213800       1.34201600      -0.50508100
H       -2.82287400       0.40625200       1.88255600
H       -0.70276200       1.40689000      -0.40796500
C        2.09400600       0.75470800      -0.02822000
C        2.44210500      -0.75761500      -0.01194200
O        3.15918900       1.51054600       0.08766900
O        0.97059900       1.19093600      -0.13295800
O        3.60956900      -1.05411800       0.11249700
O        1.46594900      -1.61184900      -0.13084000
H        3.92846400       0.91035600       0.16046300
H        0.56868600      -1.21668900      -0.22924000
18
1sa1oa1w
S        1.65613200      -0.39239400      -0.38728800
O        2.97978400      -0.72909900      -0.85192200
O        0.56714700      -1.34312300      -0.51055800
O        1.70699000       0.01853400       1.13534000
O        1.25793000       0.94914000      -1.12726200
H        2.60550600       0.41487300       1.33054800
H        0.30344200       1.13106900      -0.96918600
O        4.21010800       0.81813000       1.26590300
H        4.48668900       0.36360800       0.45836900
H        4.50911200       1.72893700       1.19655900
C       -2.88324300      -0.60978200       0.32498800
C       -2.46998000       0.81811000      -0.12288700
O       -1.98037200      -1.54685800       0.30078800
O       -4.03300000      -0.76601000       0.67415400
O       -1.35841900       1.12001700      -0.49065300
O       -3.46937400       1.66613400      -0.05701700
H       -1.08542300      -1.27132500      -0.01215500
H       -4.24445400       1.16626200       0.26967400
21
1sa1oa2w
S       -1.20385500      -0.64586900      -0.28106400
O       -0.09160200      -1.57741400      -0.21898500
O       -2.52309400      -1.15194000      -0.58980800
O       -1.19328000       0.14031700       1.06609400
O       -0.90572700       0.45911900      -1.37859800
H       -1.98676500       0.79213600       1.14470300
H        0.04063200       0.71957000      -1.30970300
O       -4.94168300       0.17912200      -0.06626700
H       -5.63403900      -0.35295500       0.33355300
H       -4.26784300      -0.43537900      -0.40186700
O       -3.19113400       1.69075500       1.25018100
H       -3.12544700       2.56551200       0.85760900
H       -3.96658200       1.23780900       0.83851300
C        2.81398600       0.77457100      -0.37463300
C        3.26830300      -0.44321800       0.47511600
O        3.77373400       1.65747800      -0.52565200
O        1.70745700       0.90248000      -0.84496200
O        4.40781700      -0.42901500       0.88818700
O        2.41202000      -1.39755600       0.69356600
H        4.55456900       1.31124900      -0.04819900
H        1.51736700      -1.27892100       0.28947300
24
1sa1oa3w
S        2.41938500      -0.28706400       0.06785700
O        2.28372900       0.64118000       1.19163900
O        1.47769200      -0.00745200      -1.05328200
O        3.89464400       0.05246200      -0.50681000
O        2.43304800      -1.71485500       0.41132100
H        4.12875100      -0.61309100      -1.16847800
H        0.96091500      -2.57785300       0.09445000
O       -0.14388900       1.90476100      -1.01609100
H        0.46006700       1.06953600      -1.06970200
H        0.23499600       2.46380000      -0.24819600
O        0.04053500      -2.88321400      -0.07562200
H       -0.20328400      -3.48143500       0.63617100
H       -0.82265500      -1.68069300      -0.24640900
O        0.99318700       2.98216100       0.96375200
H        1.56597200       2.21494800       1.19338200
H        1.55523400       3.75848300       0.89831000
C       -3.25601300       0.54193300      -0.07886100
C       -2.54769400      -0.82384700       0.06134700
O       -4.51627700       0.50395400       0.29019800
O       -2.71174100       1.54824400      -0.48005700
O       -3.17038900      -1.75591000       0.53441600
O       -1.32669500      -0.78706900      -0.36168700
H       -4.70443200      -0.40762200       0.58510800
H       -1.09424100       1.66434600      -0.83748200
27
1sa1oa4w
S       -0.64005500      -1.55324500      -0.01203900
O       -0.02321800      -0.59662500      -0.98003500
O       -0.52227700      -1.00770900       1.37677800
O       -1.98397100      -1.98435900      -0.36235100
O        0.26227800      -2.86271800      -0.05614200
H       -3.32252200      -0.56970300      -0.61645800
H        1.18396900      -2.60641100       0.14536100
O       -1.50140100       1.32357400      -1.84002600
H       -0.88398800       0.54631800      -1.65795100
H       -1.17352400       2.06606000      -1.20905000
O       -3.52369700       0.38274100      -0.65638400
H       -2.40999500       0.99958700      -1.46685800
H       -3.36772300       0.70720500       0.24908100
O       -2.13818700       1.20194100       1.65871800
H       -2.45631700       1.39238900       2.54547200
H       -1.60555700       0.37929400       1.71471400
O       -0.71182400       2.94492600      -0.05963100
H       -1.04312500       2.49584700       0.74076900
H        0.25290200       2.99895000       0.02316700
C        1.94077900       1.08320900       0.39740600
C        2.67056600      -0.19846600      -0.07113000
O        1.14266900       0.98376300       1.42190500
O        2.16044500       2.13321500      -0.17841800
O        2.54666600      -1.26257700       0.48569000
O        3.44931200       0.00882300      -1.11112900
H        0.76752800       0.06689800       1.53777800
H        3.37679400       0.94706100      -1.36284300
30
1sa1oa5w
S        0.71708900      -1.47015300      -0.37457000
O        0.64630100      -1.49525200       1.09881600
O        2.04888800      -1.77437900      -0.91523100
O       -0.26822500      -2.68972500      -0.77402000
O        0.12095700      -0.25642200      -0.98043600
H       -0.49045400      -2.62270800      -1.71333400
H        1.34838800       1.02136600      -1.58815500
O        1.05990100       2.77830900       0.60250900
H        1.35491100       2.02206100       1.25290700
H        0.07085600       2.75557600       0.48333500
O        3.80498500       0.11581400      -0.09003200
H        3.35475500      -0.70511200      -0.38812500
H        4.74967200      -0.05727100      -0.07945700
O        1.96888100       0.85447300       1.92916800
H        2.77965800       0.61316900       1.44283900
H        1.40907100       0.05694300       1.87771400
O        1.98910000       1.75334500      -1.48954400
H        2.82152000       1.31910900      -1.22802800
H        1.46295100       2.47420700      -0.30640400
O       -1.93282000      -1.55735300       2.07994000
H       -2.51119300      -1.90917200       1.39058900
H       -1.03325900      -1.86620300       1.86479700
C       -2.65398600       0.36637000      -0.64715000
C       -1.81139900       1.25659200       0.29902600
O       -2.77990100       0.88960600      -1.85314300
O       -3.15362800      -0.67632900      -0.30958800
O       -1.41553300       2.33555700      -0.14256000
O       -1.57604600       0.85805900       1.49707400
H       -2.27731200       1.72342500      -1.86922100
H       -1.82354700      -0.12634300       1.71878600
33
1sa1oa6w
S        0.67147400      -1.47302600      -0.41611800
O        0.07257800      -0.47855400      -1.34500800
O        2.03132300      -1.86805600      -0.77615700
O        0.53422200      -1.02480400       0.99705800
O       -0.19095100      -2.80405200      -0.55308800
H        1.81664700      -0.86701700       2.22928200
H       -1.11064300      -2.57751200      -0.30891000
O        1.17135100       2.59828700       0.30270700
H        0.35979200       2.16627200       0.70324100
H        1.25441900       2.33442100      -0.68922100
O        3.77965100       0.18021400      -1.19520600
H        3.24953400      -0.64050600      -1.08853300
H        4.61365200      -0.06944800      -1.60138900
O        2.45199500      -0.42947000       2.82786100
H        3.08195800       0.85820300       1.87004500
H        2.97213600      -1.11670400       3.25005600
O        3.24864700       1.54416900       1.18335100
H        2.03131600       2.19482800       0.75206300
H        3.63452200       1.07583700       0.41843200
O       -0.80617800       1.25135800       1.38846100
H       -1.00473100       1.42910200       2.31228500
H       -0.40926400       0.35014700       1.34398800
O        1.58238800       1.73487700      -2.04378600
H        2.47770600       1.35395200      -1.99901500
H        0.99877700       0.95597600      -2.09401200
C       -3.11014000       0.85225000      -0.55330200
C       -3.18658500      -0.41740000       0.33259800
O       -2.15763300       0.91031400      -1.43916100
O       -3.96541200       1.69665700      -0.39467000
O       -2.48444500      -1.39004700       0.18890400
O       -4.12924900      -0.32483500       1.24769700
H       -1.46627800       0.20619100      -1.33570400
H       -4.56907500       0.53710700       1.10779400
