56
3sa1dma1tma1eda-84
S        0.69010300      -2.19883600       0.28251400
O        0.71958200      -1.03990800       1.22583000
O       -0.43112500      -3.10108500       0.56902200
O        0.45364100      -1.57504300      -1.17485200
O        2.02071000      -2.81742000       0.16874400
H        3.03136900      -1.66126300      -0.70620900
H       -0.53392100      -1.53087300      -1.39727800
S       -2.89593100      -0.93294000      -0.56904200
O       -2.03764200      -1.32219400      -1.72500500
O       -4.24034800      -0.51701600      -0.92497900
O       -3.05715200      -2.24322300       0.33770200
O       -2.15927600       0.05354700       0.27956000
H       -0.60982100       0.24358700       1.84741500
H       -2.16460800      -2.65006600       0.45246900
S        2.13329800       1.92556100       0.38146200
O        2.09049300       1.41205700      -1.04010300
O        3.09029100       2.99192300       0.58649100
O        0.75841700       2.15173600       0.87333300
O        2.71031100       0.67253300       1.22438100
H        2.00405600      -0.02980800       1.25858000
H       -0.98065400       0.91610000      -0.76726900
N        3.45813200      -0.94956000      -1.33599600
H        2.88178700      -0.07950200      -1.23425300
C        4.83639000      -0.64180600      -0.89527400
H        4.78878200      -0.26415300       0.12582700
H        5.44139700      -1.54844300      -0.94208000
H        5.25458700       0.12495600      -1.54881800
C        3.34747100      -1.44064700      -2.72615600
H        3.95189400      -2.34177900      -2.83892500
H        2.30021700      -1.67240800      -2.91812100
H        3.69978100      -0.66553100      -3.40834600
N       -0.94756100       0.47939600       2.79656100
C       -1.75567200       1.72243500       2.71131300
C       -1.75582500      -0.68736100       3.23766400
C        0.25029800       0.66950800       3.65491900
H       -1.13048900      -1.57789600       3.17281400
H       -2.08522700      -0.51855400       4.26503400
H       -2.60585800      -0.79387500       2.56591500
H       -1.11359900       2.51361300       2.32476700
H       -2.58331400       1.53979100       2.02796100
H       -2.11947500       1.97053900       3.71082000
H        0.84252000       1.48430500       3.24054700
H       -0.08101100       0.90372600       4.66873800
H        0.83089800      -0.25186200       3.64508000
C       -1.17228000       2.77981600      -1.64982000
C       -2.69426000       2.68386700      -1.77783400
N       -3.03569200       1.80254000      -2.89107200
N       -0.62597500       1.40324000      -1.61138900
H        0.41191900       1.37607300      -1.57271200
H       -1.00874500       0.88721200      -2.41310200
H       -0.85446000       3.28733400      -0.73756300
H       -0.73430600       3.28614400      -2.51385800
H       -3.10155300       3.69565500      -1.88677100
H       -3.10045100       2.26556000      -0.85180000
H       -3.37835000       2.30250400      -3.70036200
H       -3.71517100       1.09692300      -2.62402600
56
3sa1dma1tma1eda-58
S        2.35699500      -1.68043200      -0.21455800
O        1.79426400      -1.56189300       1.15000700
O        1.80072500      -0.59554300      -1.10138900
O        3.80910700      -1.75081400      -0.25825500
O        1.82890400      -3.05061200      -0.83410600
H        0.84352400      -3.00737700      -0.92760100
S       -1.39803600      -1.43588800      -1.60853800
O       -1.46912600      -0.39572900      -0.50879000
O       -0.84736400      -2.69343000      -1.05370500
O       -2.65167800      -1.53483100      -2.33155500
O       -0.32696400      -0.86930500      -2.64058900
H        0.54708500      -0.78568900      -2.16609700
S       -0.54386300       2.58877200       1.00201100
O       -1.36846700       1.80649300       1.95459600
O       -1.38221900       3.25106300      -0.02629100
O        0.48848300       3.43411800       1.58877600
O        0.34114200       1.47332400       0.20373800
H       -0.23868100       0.76184800      -0.16133900
C       -3.94158900       1.61003400      -2.06481700
N       -3.37516900       1.52626700      -0.70272200
C       -4.36760200       1.44275300       0.38861000
H       -2.74398000       0.69509400      -0.65344600
H       -4.57310100       2.49664000      -2.14014600
H       -3.11990600       1.67331900      -2.77799100
H       -4.51725900       0.70683000      -2.26864000
H       -5.02201600       2.31499000       0.34859200
H       -4.95312900       0.52947300       0.27222700
H       -3.82270000       1.43251800       1.33333600
H       -2.72267600       2.32365400      -0.51205000
N        3.13834600       1.79239000      -0.45068500
C        2.71858800       3.15760400      -0.86188200
C        3.43938800       1.72849500       1.00598100
C        4.27434600       1.29486700      -1.27201200
H        3.66499100       0.69393200       1.26688700
H        4.29951800       2.36949800       1.21088000
H        2.56309600       2.08133500       1.55029400
H        2.35619400       3.11661200      -1.88930000
H        1.92933000       3.50368200      -0.19504600
H        3.58570300       3.81844200      -0.79637500
H        3.98008600       1.31976400      -2.32142500
H        5.13509800       1.94578900      -1.10529000
H        4.49529600       0.26695300      -0.98112200
H        2.34831700       1.13685600      -0.61099700
C       -0.91305500      -3.25051100       2.57195800
N       -2.06224700      -3.23497000       1.67173800
C       -0.75580900      -1.87072800       3.21472600
N       -0.64181900      -0.87994100       2.12291700
H       -2.78944900      -3.87969600       1.94775000
H       -1.80243100      -3.41192100       0.70600600
H       -1.02019300      -3.99583700       3.36649100
H        0.00815600      -3.48598500       2.02753400
H        0.13985800      -1.80766400       3.83638400
H       -1.63558200      -1.62088800       3.81226700
H        0.28687300      -0.97875900       1.65675200
H       -0.79003300       0.10849900       2.38487900
H       -1.34738600      -1.08514000       1.40034900
56
3sa1dma1tma1eda-131
S       -2.92749200      -1.16002000       0.36120700
O       -2.43021500      -2.54774600       0.95240600
O       -4.36153700      -1.10753900       0.55575600
O       -2.48208600      -1.09218900      -1.05780600
O       -2.19649600      -0.09757300       1.14882600
H       -1.04595100      -1.59102000      -1.72263700
H       -1.53897800      -2.79580800       0.57687600
S        1.41015000       2.32743900       0.24209100
O        0.30241100       3.02403000       0.92596200
O        2.36989100       3.17825300      -0.44914500
O        2.06186100       1.30607800       1.12285100
O        0.68682700       1.44709700      -0.91285500
H        0.76915200       0.47571500      -0.69514200
H        0.93153500       0.05467500       1.87247500
S        0.77899400      -2.28736800      -0.84955500
O       -0.02156300      -3.15125100       0.04654200
O        1.95016000      -2.91144500      -1.45020600
O       -0.15265400      -1.86578700      -2.06854800
O        1.12838700      -1.00733200      -0.13951100
N        0.15229900      -0.25066100       2.48171500
H       -0.69615200      -0.27722000       1.87143600
C        0.39414800      -1.60974000       3.01167800
H        0.51777600      -2.29315000       2.17131500
H        1.29043400      -1.59804100       3.63440500
H       -0.46917200      -1.91305000       3.60566600
C       -0.06140500       0.78669800       3.51452100
H        0.80158700       0.81167900       4.18156900
H       -0.16250900       1.75032200       3.01345000
H       -0.96640300       0.54772800       4.07451500
N        3.95300900      -0.01319800      -0.49458100
C        4.47495800      -1.35806500      -0.13822500
C        3.60247400       0.07397800      -1.94017200
C        4.88359700       1.07599000      -0.09541800
H        3.11667100       1.03359100      -2.11903800
H        4.52319400      -0.00446800      -2.52207600
H        2.93092900      -0.74882900      -2.18337800
H        4.64061200      -1.39219700       0.93925700
H        3.74183700      -2.10790800      -0.44021400
H        5.41896800      -1.51529300      -0.66431700
H        5.05782300       1.00901200       0.97834500
H        5.82080600       0.95166500      -0.64163500
H        4.41489600       2.03356300      -0.32665000
H        3.08025400       0.14466800       0.04645900
C       -3.35862800       2.84012500      -0.53267600
N       -2.03318500       2.20189000      -0.37258900
C       -4.25240500       1.88544300      -1.33377300
N       -3.52177700       1.40604700      -2.50493700
H       -1.29614200       2.79093100       0.04983700
H       -1.71491300       1.89842400      -1.30160900
H       -3.77002500       3.04998500       0.45669000
H       -3.20758200       3.78015100      -1.06884100
H       -5.16533400       2.42144900      -1.61075500
H       -4.55366700       1.04893100      -0.69403300
H       -3.97604200       1.63843900      -3.37701800
H       -3.37489100       0.40223500      -2.45844500
H       -2.09387300       1.34112400       0.21655200
