33
2fa1tma1dma-2
H        1.88153000       2.35121600       1.95726800
H       -0.72608800       1.77329800       0.02767200
C        1.06127100       1.89279100       1.37296600
O        0.07489400       2.61759500       1.09986500
O        1.18844900       0.68477800       1.02949500
H        4.27498400      -1.56779900      -0.91921600
H        2.50150900      -0.05942200       0.76427400
C        3.34145300      -1.03362300      -0.68519500
O        3.35287300      -0.57643500       0.54392700
O        2.44184900      -0.91379500      -1.49583200
N       -1.64158100      -1.34403800       0.35600800
C       -2.91542200      -1.97594400       0.03741700
H       -3.73928500      -1.35009400       0.39394700
H       -3.01212000      -2.09408400      -1.04602200
H       -3.01211100      -2.97156800       0.50300400
C       -0.51398900      -2.12112300      -0.15998800
H       -0.61599600      -2.24790200      -1.24141800
H        0.41583800      -1.58260600       0.03209700
H       -0.46013700      -3.11873000       0.30683400
C       -1.50089600      -1.12439900       1.79538600
H       -0.55273800      -0.61531600       1.98352000
H       -2.31902000      -0.49148400       2.15296900
H       -1.52351600      -2.07483400       2.35419300
N       -1.21053400       1.20634200      -0.74427900
C       -0.26997300       1.04611800      -1.87207600
C       -2.48409700       1.85062200      -1.09867000
H       -1.40077500       0.25011100      -0.32809100
H       -0.00214700       2.03119000      -2.25996100
H        0.62365200       0.53119600      -1.51306900
H       -0.74301500       0.45787600      -2.66250000
H       -2.29154100       2.84484600      -1.50622600
H       -3.01430600       1.24870000      -1.84070700
H       -3.09452700       1.94547700      -0.19935800
33
2fa1tma1dma-1
H        1.41229500      -2.81838300      -1.21907100
H       -1.47938200      -1.52026700      -0.31671500
C        0.60027800      -2.25042700      -0.72688600
O       -0.57609200      -2.51708000      -1.07702200
O        0.92751500      -1.38754300       0.13324800
H        4.84682900       0.47296100       0.38691700
H        2.42420100      -1.07580500       0.35252700
C        3.76891000       0.31800700       0.22394200
O        3.41953700      -0.91486300       0.51193900
O        3.03588100       1.20359600      -0.16936900
N       -0.86552300       1.67718900      -0.15109800
C       -0.08503200       1.54767700      -1.38414800
H        0.65425500       0.75539200      -1.25755500
H       -0.75448400       1.29626300      -2.21310900
H        0.44861300       2.47990700      -1.62508100
C       -1.85940500       2.73799700      -0.26339800
H       -2.52879600       2.53172200      -1.10441300
H       -2.45591800       2.78700800       0.65328800
H       -1.39372200       3.72427600      -0.42555800
C        0.01537800       1.89139000       0.99861900
H       -0.58296900       1.92780700       1.91520900
H        0.72882700       1.06805400       1.05822100
H        0.58263100       2.83033300       0.90723200
N       -2.05069500      -0.80232700       0.25549300
C       -1.90402300      -1.13688400       1.68249800
C       -3.43978300      -0.75697700      -0.22240100
H       -1.58591300       0.14477900       0.08358900
H       -2.36715200      -2.10596600       1.88079100
H       -0.83586300      -1.19010900       1.89753100
H       -2.38043200      -0.36873700       2.29707500
H       -3.91246900      -1.73114800      -0.08107500
H       -4.00132100       0.00393800       0.32575100
H       -3.43837600      -0.51363300      -1.28603300
33
2fa1tma1dma-3
H       -1.97570900       2.77387600      -1.69152400
H        0.67693800       1.83946500       0.02415000
C       -1.19415700       2.24532800      -1.11359100
O       -0.11053900       2.84939700      -0.92079700
O       -1.44855200       1.08520900      -0.69552900
H       -3.86189600      -2.06661700       0.81637800
H       -2.65512400       0.19125700      -0.48975200
C       -3.04579400      -1.35961900       0.60308400
O       -3.40385500      -0.47479000      -0.29224200
O       -1.96286300      -1.43808000       1.15661400
N        1.53048300      -1.34403500      -0.48302500
C        0.49043100      -1.43835300      -1.50817900
H       -0.48259300      -1.26104300      -1.04829100
H        0.64949300      -0.66603100      -2.26539800
H        0.49510800      -2.42661400      -1.99764300
C        2.85863200      -1.51148300      -1.06017200
H        3.02811700      -0.74837600      -1.82558300
H        3.62001300      -1.39964200      -0.28171700
H        2.98513700      -2.50350100      -1.52640300
C        1.29109900      -2.31062500       0.58795800
H        2.04034100      -2.17966000       1.37590600
H        0.29511600      -2.15013200       1.00817800
H        1.35642800      -3.34862800       0.22003100
N        1.20424800       1.19040600       0.69742800
C        0.36567900       0.95402600       1.89011900
C        2.52258700       1.77515000       0.98634700
H        1.32824600       0.26244800       0.20116400
H        0.12768800       1.91126400       2.35855800
H       -0.54885400       0.45408700       1.56690400
H        0.90835700       0.32082600       2.59650600
H        2.39361300       2.73712800       1.48602400
H        3.09876700       1.10389400       1.62789300
H        3.05329500       1.93097200       0.04603500
