22
1fa1tma1am-1
H       -3.59715300      -1.22053700       0.42246600
H       -1.93506300       1.10800200       0.13069700
C       -2.70049300      -0.66836500       0.10154300
O       -2.76541500       0.59542200       0.45096400
O       -1.78528900      -1.20169900      -0.49669000
N        1.62369300      -0.02695900       0.04664500
C        1.58577200      -0.86324900      -1.14686700
H        0.57108700      -1.24252600      -1.29006200
H        1.86649000      -0.26786700      -2.02182000
H        2.28219900      -1.71855100      -1.07535500
C        2.94404300       0.54465900       0.25346400
H        3.23501800       1.13381100      -0.62172200
H        2.93135500       1.20733200       1.12448300
H        3.71567700      -0.22962600       0.42000700
C        1.17555700      -0.76900900       1.21765200
H        1.13617000      -0.10105100       2.08404600
H        0.17385800      -1.16358200       1.03190500
H        1.84917500      -1.61127200       1.45962500
N       -0.61446400       1.92305200      -0.37874300
H       -0.43399000       2.81083000       0.07951500
H       -0.68469500       2.10375600      -1.37565600
H        0.20163400       1.30463100      -0.23238200
22
1fa1tma1am-2
H       -2.17038200      -2.64360900      -0.31203700
H        0.23151800      -1.01046000      -0.28240600
C       -1.58073200      -1.74102000      -0.08952100
O       -0.34619900      -1.85595200      -0.50720800
O       -2.06353300      -0.77888400       0.48071400
N        1.26575500       0.12187600       0.01749300
C        0.95444500       0.69713600       1.32694900
H       -0.03396700       1.15673100       1.28640700
H        0.94445800      -0.09471700       2.08066900
H        1.69586000       1.45774200       1.61785500
C        2.57270600      -0.53299400       0.02257700
H        2.58786900      -1.31576800       0.78550000
H        2.75267200      -0.99586400      -0.95126400
H        3.38343900       0.18273600       0.23114100
C        1.18233000       1.13947800      -1.03435600
H        1.31283100       0.66207200      -2.00980000
H        0.20222100       1.62287300      -0.98929400
H        1.96457500       1.90547000      -0.90955300
N       -2.01594600       2.20979200      -0.20561000
H       -2.61611600       2.41232500      -0.99807600
H       -2.32175000       2.80156200       0.55962200
H       -2.17652000       1.24031900       0.06609900
22
1fa1tma1am-3
C       -2.20096900       0.34299400       0.25076300
O       -2.29602100      -0.61256300      -0.52373100
O       -1.11896600       0.75873200       0.81215400
H       -3.10563100       0.92404000       0.51470700
N        0.77830200      -0.72712100       0.04360100
C        2.02277300      -0.31448100       0.71880400
H        2.21182700       0.73189800       0.46922000
H        1.88854300      -0.41741000       1.79731000
H        2.85489100      -0.94613300       0.39051000
C        0.38048500      -2.10757100       0.38074400
H        0.29075400      -2.19481300       1.46512100
H       -0.59289500      -2.29581800      -0.07534300
H        1.13033300      -2.81553300       0.01347600
C        0.85613900      -0.52885600      -1.41857300
H       -0.13056800      -0.73446700      -1.83761600
H        1.13127800       0.51070600      -1.60405800
H        1.60598100      -1.20245300      -1.84607600
H       -0.07485900      -0.04646500       0.40809100
N        0.90866800       2.72756900      -0.21111600
H        0.06829200       2.31490500       0.19847000
H        0.62892400       3.21738700      -1.05492700
H        1.25367400       3.42915100       0.43590500
