14
1dma1aq1p
N       -0.49322000       0.00900800      -0.41173100
H        0.54093500      -0.00133100      -0.26697100
H       -0.64312300       0.02854200      -1.42215600
C       -1.07239800      -1.24951100       0.14125200
C       -1.05477700       1.25204500       0.19244800
H       -2.14697500      -1.26057300      -0.04087900
H       -0.59901100      -2.10115900      -0.34646000
H       -0.87774100      -1.27807700       1.21320300
H       -2.13080100       1.28030200       0.02106600
H       -0.84622000       1.24004300       1.26188800
H       -0.57723700       2.11642800      -0.26766100
O        2.23569600      -0.00729000       0.05485600
H        2.69798500      -0.49115500       0.74693700
H        2.91221000       0.44703700      -0.45789500
21
1dma1sa1aq1p
H        1.73063400       0.50215900      -0.76182800
S       -0.76879700      -0.50151300       0.16183700
O       -1.49786500      -1.72211200      -0.55337800
O        0.21265400      -1.00452400       1.10600900
O       -1.88820200       0.19299000       0.97852400
O       -0.29766700       0.34069900      -0.92308300
H       -1.74830700      -2.40295100       0.09202200
H       -2.54761100       0.70052100       0.39114300
N        2.48523100       0.27133800      -0.09987400
H        2.02011200      -0.36974100       0.55996900
O       -3.54675600       1.48590500      -0.46975200
H       -3.38458600       1.75908700      -1.37766400
H       -4.49345600       1.52796300      -0.30449400
C        3.59304800      -0.42842300      -0.80611400
C        2.89551200       1.50494700       0.62701700
H        4.02557900       0.24948600      -1.54168200
H        3.19158400      -1.31207800      -1.30102000
H        4.34776000      -0.71894100      -0.07578200
H        3.64117600       1.23997200       1.37600900
H        2.01722400       1.93381200       1.10850700
H        3.31536600       2.21274400      -0.08742600
31
2dma1sa1aq1p
S       -0.27697900       0.14023700       0.28779100
O       -1.13597600      -0.51036700      -0.71626600
O        0.82096300      -0.70383400       0.78505700
O        0.12533600       1.51160200      -0.03602900
N        3.42833800      -0.48544800      -0.10255800
H        2.48041400      -0.63229700       0.30134100
H        3.36390700       0.46724200      -0.52107800
C        4.44124900      -0.48846400       0.97883500
C        3.65849600      -1.49458000      -1.16271000
H        4.43866300      -1.46121000       1.47144700
H        5.42444500      -0.29207200       0.55017300
H        4.18815800       0.29169100       1.69598300
H        3.64347400      -2.48987500      -0.71789300
H        4.62541000      -1.31161200      -1.63250200
H        2.86380800      -1.41077100      -1.90366300
N       -3.71939100      -0.34367300      -0.02066900
H       -3.58299600      -0.43846100       0.98791900
H       -2.75010900      -0.47750200      -0.40976500
C       -4.15190400       1.04612800      -0.32054900
C       -4.63555300      -1.39826700      -0.52146300
H       -5.61416700      -1.28184000      -0.05489800
H       -4.21544500      -2.37396200      -0.27943600
H       -4.72569300      -1.29507600      -1.60271100
H       -5.12052000       1.23358900       0.14365100
H       -3.40137700       1.73250800       0.07093900
H       -4.22650400       1.16071300      -1.40175700
O       -1.33977300       0.27265700       1.54025500
H       -0.89870500       0.68046100       2.29862700
H        1.76162500       2.03242100      -0.65306400
H        2.89678100       2.76008900      -1.45693900
O        2.70996700       2.01458100      -0.88215900
17
1dma2aq1p
N       -0.00638500       0.37574800       0.00013000
H        0.81941700      -0.25267900      -0.00549200
H       -0.85280800      -0.22511400      -0.00226800
C        0.01585900       1.17814300       1.25129900
C        0.00613000       1.19514300      -1.23998200
H       -0.84581100       1.84603000       1.26420500
H       -0.02617000       0.50135200       2.10425700
H        0.93716300       1.75989500       1.28486500
H       -0.87610600       1.83535300      -1.25456900
H        0.90838300       1.80723600      -1.25455300
H       -0.00791400       0.52937700      -2.10253500
O       -2.35231300      -1.16808500      -0.01187200
H       -2.45072100      -2.06083800      -0.35748400
H       -3.21842100      -0.90766500       0.31699700
O        2.33748800      -1.17321700       0.00322300
H        2.60489100      -1.82217200       0.66161800
H        3.03945000      -1.15030700      -0.65466400
24
1dma1sa2aq1p
S        1.14322000      -0.59345800      -0.05493600
O        1.05982400      -2.17611500      -0.00039400
O        1.11691500      -0.03224000       1.28583300
O        0.09446000      -0.20434700      -0.97631700
H        1.74306900      -2.54755900       0.58001700
H       -1.73935300       0.84994200       3.05423300
H       -0.56011900       0.47925600       2.09625400
H       -2.38907800       0.46949100       0.66489200
H        3.99191300       2.14686300       0.49921100
H        4.07052400       2.30798900      -1.04453100
H        2.95063100       0.51084700      -0.51777200
C       -3.48242600      -0.91446000      -0.44138800
H       -4.42826900      -0.72609500       0.06677400
H       -2.96896400      -1.75191300       0.03016600
H       -3.66300900      -1.13375600      -1.49386100
C       -3.20968400       1.51689700      -0.93848500
H       -1.70665400       0.09869800      -0.76205400
H       -4.14941800       1.74672100      -0.43611300
H       -2.50754800       2.33980300      -0.80853800
H       -3.38843200       1.34358200      -1.99981400
N       -2.62522900       0.29304900      -0.33494200
O        2.55617900      -0.41342500      -0.67893900
O        3.56352100       1.90934600      -0.32958900
O       -1.51809400       0.62871800       2.14615000
34
2dma1sa2aq1p
O       -2.44909600       2.13546900      -0.57987500
H       -3.45810200       0.87399000       0.03969500
N        3.67803900      -0.03483900       0.50031800
H        3.45686300       0.87309500       0.03980400
H        2.79120400      -0.56898000       0.38988200
O        1.22575500      -1.21968300       0.13452400
O        0.00059200       0.83767200      -0.47920100
S        0.00004900      -0.64125900      -0.43524800
O       -1.22627500      -1.21878700       0.13411600
O        0.00019900      -1.01708200      -2.01109900
H       -0.00009200      -1.98038600      -2.10871600
H       -1.53266700       1.80365900      -0.64155300
H       -2.79199100      -0.56840400       0.38763500
N       -3.67895500      -0.03463300       0.49891500
C       -4.77317200      -0.72867200      -0.21823600
C       -3.93608200       0.19040200       1.94096900
C        3.93584500       0.19197100       1.94196600
C        4.77206300      -0.72950300      -0.21652200
H        4.48785500      -0.84911000      -1.26174200
H        4.93156500      -1.70863900       0.23604600
H        5.68476300      -0.13676000      -0.14607200
H        4.83098700       0.80403500       2.05591000
H        4.07624400      -0.76967900       2.43634200
H        3.07744300       0.70736200       2.37149500
H       -4.83109000       0.80244300       2.05607500
H       -4.07633500      -0.77182400       2.43426600
H       -3.07740100       0.70517800       2.37067700
H       -4.93221200      -1.70840600       0.23320000
H       -5.68598200      -0.13624700      -0.14658300
H       -4.48946800      -0.84691400      -1.26375000
H       -2.55985500       2.83593800      -1.22666700
O        2.45078100       2.13336600      -0.58533700
H        1.53409300       1.80200200      -0.64592700
H        2.56224200       2.83126200      -1.23477700
20
1dma3aq1p
N        1.30266700       0.00000000      -0.00013500
H        0.65519500       0.81327400      -0.00037300
H        0.65519600      -0.81327500      -0.00033200
C        2.10739500      -0.00003700      -1.24673600
C        2.10637300       0.00003800       1.24713100
H        2.73395800      -0.89211600      -1.26996400
H        1.43019300      -0.00007200      -2.10030500
H        2.73394700       0.89204900      -1.27002700
H        2.73290000      -0.89205100       1.27093700
H        2.73290700       0.89212300       1.27087400
H        1.42843800       0.00007100       2.10011400
O       -0.80237700      -1.78390300       0.00001600
H       -0.95512100      -2.73235200      -0.00011900
H       -1.66662900      -1.33992000      -0.00016000
O       -0.80237700       1.78390200      -0.00003400
H       -0.95512100       2.73235000      -0.00018100
H       -1.66663000       1.33992000      -0.00015700
O       -3.02629000       0.00000100      -0.00016900
H       -3.60601800      -0.00000800       0.77007400
H       -3.60614400       0.00001100      -0.77031600
