1sa_2ma.log
 OpenBabel02271919103D
Gaussian users/kemi/kmacke/programs/G09D/g09/g09 # opt freq wb97xd/6-31++g(d,p) 
 21 18  0  0  0  0  0  0  0  0999 V2000
   -2.9010   -0.6282   -0.5838 N   0  0  0  0  0  0  0  0  0  0  0  0
   -3.1968    0.3140   -0.3379 H   0  0  0  0  0  0  0  0  0  0  0  0
   -3.5338   -0.9779   -1.2960 H   0  0  0  0  0  0  0  0  0  0  0  0
    2.9011   -0.6283    0.5839 N   0  0  0  0  0  0  0  0  0  0  0  0
    3.1970    0.3138    0.3383 H   0  0  0  0  0  0  0  0  0  0  0  0
   -0.0000    0.8987    0.0000 S   0  0  0  0  0  0  0  0  0  0  0  0
    1.1746    1.6158   -0.4591 O   0  0  0  0  0  0  0  0  0  0  0  0
   -1.1746    1.6157    0.4594 O   0  0  0  0  0  0  0  0  0  0  0  0
   -0.4257   -0.0783   -1.1628 O   0  0  0  0  0  0  0  0  0  0  0  0
    0.4257   -0.0787    1.1625 O   0  0  0  0  0  0  0  0  0  0  0  0
    1.4208   -0.3606    1.0174 H   0  0  0  0  0  0  0  0  0  0  0  0
   -1.4208   -0.3604   -1.0175 H   0  0  0  0  0  0  0  0  0  0  0  0
   -2.9080   -1.4884    0.6087 C   0  0  0  0  0  0  0  0  0  0  0  0
   -2.5551   -2.4845    0.3326 H   0  0  0  0  0  0  0  0  0  0  0  0
   -2.2111   -1.0736    1.3399 H   0  0  0  0  0  0  0  0  0  0  0  0
   -3.8975   -1.5775    1.0701 H   0  0  0  0  0  0  0  0  0  0  0  0
    2.9080   -1.4882   -0.6089 C   0  0  0  0  0  0  0  0  0  0  0  0
    2.5551   -2.4844   -0.3331 H   0  0  0  0  0  0  0  0  0  0  0  0
    2.2111   -1.0731   -1.3400 H   0  0  0  0  0  0  0  0  0  0  0  0
    3.8975   -1.5771   -1.0704 H   0  0  0  0  0  0  0  0  0  0  0  0
    3.5337   -0.9785    1.2960 H   0  0  0  0  0  0  0  0  0  0  0  0
  1  2  1  0  0  0  0
  1 13  1  0  0  0  0
  3  1  1  0  0  0  0
  4 21  1  0  0  0  0
  5  4  1  0  0  0  0
  6  8  2  0  0  0  0
  6 10  1  0  0  0  0
  7  6  2  0  0  0  0
  9 12  1  0  0  0  0
  9  6  1  0  0  0  0
 11 10  1  0  0  0  0
 13 16  1  0  0  0  0
 13 15  1  0  0  0  0
 14 13  1  0  0  0  0
 17 18  1  0  0  0  0
 17  4  1  0  0  0  0
 19 17  1  0  0  0  0
 20 17  1  0  0  0  0
M  END
$$$$
