1sa_1ma.log
 OpenBabel02271919103D
Gaussian users/kemi/kmacke/programs/G09D/g09/g09 # opt freq 6-31++g(d,p) wb97xd
 14 12  0  0  0  0  0  0  0  0999 V2000
   -0.9278    0.1392    0.0208 S   0  0  0  0  0  0  0  0  0  0  0  0
   -1.7491    1.3366    0.0303 O   0  0  0  0  0  0  0  0  0  0  0  0
   -1.9625   -1.1237   -0.0162 O   0  0  0  0  0  0  0  0  0  0  0  0
   -0.0826   -0.0162   -1.2042 O   0  0  0  0  0  0  0  0  0  0  0  0
   -0.1250   -0.1351    1.2342 O   0  0  0  0  0  0  0  0  0  0  0  0
    2.1503   -0.6486   -0.0326 N   0  0  0  0  0  0  0  0  0  0  0  0
    3.0809    0.4995    0.0109 C   0  0  0  0  0  0  0  0  0  0  0  0
   -2.7650   -0.8228   -0.4624 H   0  0  0  0  0  0  0  0  0  0  0  0
    1.3937   -0.5006   -0.7707 H   0  0  0  0  0  0  0  0  0  0  0  0
    1.5245   -0.6612    0.8029 H   0  0  0  0  0  0  0  0  0  0  0  0
    3.6156    0.5704   -0.9358 H   0  0  0  0  0  0  0  0  0  0  0  0
    3.7855    0.3785    0.8335 H   0  0  0  0  0  0  0  0  0  0  0  0
    2.4882    1.4011    0.1630 H   0  0  0  0  0  0  0  0  0  0  0  0
    2.6186   -1.5428   -0.1529 H   0  0  0  0  0  0  0  0  0  0  0  0
  1  2  2  0  0  0  0
  1  5  1  0  0  0  0
  3  1  1  0  0  0  0
  4  1  2  0  0  0  0
  6  7  1  0  0  0  0
  6 10  1  0  0  0  0
  7 13  1  0  0  0  0
  7 12  1  0  0  0  0
  8  3  1  0  0  0  0
  9  6  1  0  0  0  0
 11  7  1  0  0  0  0
 14  6  1  0  0  0  0
M  RAD  1   5   2
M  END
$$$$
