2ma.log
 OpenBabel02271919103D
Gaussian users/kemi/kmacke/programs/G09D/g09/g09 # opt=(maxcycle=10000) freq wb9
 14 12  0  0  0  0  0  0  0  0999 V2000
   -1.4623   -0.7416   -0.1776 N   0  0  0  0  0  0  0  0  0  0  0  0
    1.3213    0.6518   -0.0874 N   0  0  0  0  0  0  0  0  0  0  0  0
    0.4734    0.1814   -0.4048 H   0  0  0  0  0  0  0  0  0  0  0  0
    1.5917    1.3250   -0.7956 H   0  0  0  0  0  0  0  0  0  0  0  0
   -1.2652   -1.2858    0.6555 H   0  0  0  0  0  0  0  0  0  0  0  0
   -2.0142   -1.3272   -0.7943 H   0  0  0  0  0  0  0  0  0  0  0  0
    2.3851   -0.3202    0.1338 C   0  0  0  0  0  0  0  0  0  0  0  0
    3.2722    0.1824    0.5318 H   0  0  0  0  0  0  0  0  0  0  0  0
    2.0586   -1.0416    0.8893 H   0  0  0  0  0  0  0  0  0  0  0  0
    2.6900   -0.8888   -0.7596 H   0  0  0  0  0  0  0  0  0  0  0  0
   -2.1798    0.4867    0.1660 C   0  0  0  0  0  0  0  0  0  0  0  0
   -1.5347    1.1071    0.7940 H   0  0  0  0  0  0  0  0  0  0  0  0
   -2.3831    1.0483   -0.7499 H   0  0  0  0  0  0  0  0  0  0  0  0
   -3.1333    0.3287    0.6897 H   0  0  0  0  0  0  0  0  0  0  0  0
  1 11  1  0  0  0  0
  1  5  1  0  0  0  0
  2  7  1  0  0  0  0
  3  2  1  0  0  0  0
  4  2  1  0  0  0  0
  6  1  1  0  0  0  0
  7  8  1  0  0  0  0
  7  9  1  0  0  0  0
 10  7  1  0  0  0  0
 11 14  1  0  0  0  0
 11 12  1  0  0  0  0
 13 11  1  0  0  0  0
M  END
$$$$
