2sa_2ma.log
 OpenBabel02271919103D
Gaussian users/kemi/kmacke/programs/G09D/g09/g09 # opt freq wb97xd/6-31++g(d,p) 
 28 24  0  0  0  0  0  0  0  0999 V2000
   -2.2677    0.5632   -0.8105 H   0  0  0  0  0  0  0  0  0  0  0  0
    1.0220    1.8376    0.0286 S   0  0  0  0  0  0  0  0  0  0  0  0
    1.0177    1.0302   -1.3796 O   0  0  0  0  0  0  0  0  0  0  0  0
   -0.2676    2.5534    0.1172 O   0  0  0  0  0  0  0  0  0  0  0  0
    2.2164    2.6494   -0.0208 O   0  0  0  0  0  0  0  0  0  0  0  0
    1.0862    0.7365    1.0589 O   0  0  0  0  0  0  0  0  0  0  0  0
    0.2379    0.4141   -1.4006 H   0  0  0  0  0  0  0  0  0  0  0  0
   -2.6648    1.4286   -0.3696 N   0  0  0  0  0  0  0  0  0  0  0  0
   -1.8011    1.9633   -0.0989 H   0  0  0  0  0  0  0  0  0  0  0  0
   -3.5090    1.0907    0.8029 C   0  0  0  0  0  0  0  0  0  0  0  0
   -4.3705    0.5118    0.4714 H   0  0  0  0  0  0  0  0  0  0  0  0
   -3.8311    2.0088    1.2932 H   0  0  0  0  0  0  0  0  0  0  0  0
   -2.9072    0.4853    1.4796 H   0  0  0  0  0  0  0  0  0  0  0  0
    1.7300   -1.7521   -0.3163 H   0  0  0  0  0  0  0  0  0  0  0  0
   -1.0407   -1.7185   -0.1654 S   0  0  0  0  0  0  0  0  0  0  0  0
   -0.9898   -0.9398    1.2494 O   0  0  0  0  0  0  0  0  0  0  0  0
   -2.2500   -2.5075   -0.1096 O   0  0  0  0  0  0  0  0  0  0  0  0
   -1.0963   -0.6070   -1.1884 O   0  0  0  0  0  0  0  0  0  0  0  0
    0.2339   -2.4575   -0.2951 O   0  0  0  0  0  0  0  0  0  0  0  0
   -0.2245   -0.3043    1.2568 H   0  0  0  0  0  0  0  0  0  0  0  0
    2.5965   -1.1860   -0.1242 N   0  0  0  0  0  0  0  0  0  0  0  0
    2.2405   -0.4151    0.4875 H   0  0  0  0  0  0  0  0  0  0  0  0
    3.6607   -1.9902    0.5111 C   0  0  0  0  0  0  0  0  0  0  0  0
    3.9826   -2.7739   -0.1740 H   0  0  0  0  0  0  0  0  0  0  0  0
    3.2539   -2.4429    1.4146 H   0  0  0  0  0  0  0  0  0  0  0  0
    4.5018   -1.3464    0.7672 H   0  0  0  0  0  0  0  0  0  0  0  0
    2.8907   -0.7431   -0.9944 H   0  0  0  0  0  0  0  0  0  0  0  0
   -3.1725    1.9630   -1.0711 H   0  0  0  0  0  0  0  0  0  0  0  0
  1  8  1  0  0  0  0
  2  4  2  0  0  0  0
  2  6  1  0  0  0  0
  3  2  1  0  0  0  0
  5  2  2  0  0  0  0
  7  3  1  0  0  0  0
  8  9  1  0  0  0  0
  8 10  1  0  0  0  0
 10 12  1  0  0  0  0
 10 13  1  0  0  0  0
 11 10  1  0  0  0  0
 14 21  1  0  0  0  0
 15 17  1  0  0  0  0
 15 16  1  0  0  0  0
 16 20  1  0  0  0  0
 18 15  2  0  0  0  0
 19 15  2  0  0  0  0
 21 22  1  0  0  0  0
 21 23  1  0  0  0  0
 23 26  1  0  0  0  0
 23 25  1  0  0  0  0
 24 23  1  0  0  0  0
 27 21  1  0  0  0  0
 28  8  1  0  0  0  0
M  RAD  2   6   2  17   2
M  END
$$$$
