3sa_4ma.log
 OpenBabel02271919103D
Gaussian users/kemi/kmacke/programs/G09D/g09/g09 # opt freq wb97xd/6-31++g(d,p) 
 49 42  0  0  0  0  0  0  0  0999 V2000
   -3.1367   -1.2748   -0.6207 S   0  0  0  0  0  0  0  0  0  0  0  0
   -3.2548   -0.6428    0.7292 O   0  0  0  0  0  0  0  0  0  0  0  0
   -2.7867   -0.0562   -1.6197 O   0  0  0  0  0  0  0  0  0  0  0  0
   -1.9370   -2.1678   -0.6298 O   0  0  0  0  0  0  0  0  0  0  0  0
   -1.8954    0.3464   -1.3968 H   0  0  0  0  0  0  0  0  0  0  0  0
    3.1367   -1.2748    0.6207 S   0  0  0  0  0  0  0  0  0  0  0  0
    3.2548   -0.6429   -0.7292 O   0  0  0  0  0  0  0  0  0  0  0  0
    2.7868   -0.0561    1.6196 O   0  0  0  0  0  0  0  0  0  0  0  0
    1.9370   -2.1678    0.6298 O   0  0  0  0  0  0  0  0  0  0  0  0
    1.8955    0.3465    1.3968 H   0  0  0  0  0  0  0  0  0  0  0  0
    0.0000    1.8511    0.0000 S   0  0  0  0  0  0  0  0  0  0  0  0
    0.4235    0.9534    1.1481 O   0  0  0  0  0  0  0  0  0  0  0  0
    1.1509    2.6945   -0.4188 O   0  0  0  0  0  0  0  0  0  0  0  0
   -1.1509    2.6945    0.4189 O   0  0  0  0  0  0  0  0  0  0  0  0
   -0.4235    0.9534   -1.1481 O   0  0  0  0  0  0  0  0  0  0  0  0
   -4.3524   -1.8531   -1.1461 O   0  0  0  0  0  0  0  0  0  0  0  0
    3.6930    1.9967   -0.2799 N   0  0  0  0  0  0  0  0  0  0  0  0
   -3.6930    1.9967    0.2798 N   0  0  0  0  0  0  0  0  0  0  0  0
    0.5388   -1.5514   -1.7182 N   0  0  0  0  0  0  0  0  0  0  0  0
   -0.5388   -1.5514    1.7183 N   0  0  0  0  0  0  0  0  0  0  0  0
    0.3779   -0.5344   -1.5522 H   0  0  0  0  0  0  0  0  0  0  0  0
   -0.3955   -1.9820   -1.6342 H   0  0  0  0  0  0  0  0  0  0  0  0
    1.1107   -1.8862   -0.9178 H   0  0  0  0  0  0  0  0  0  0  0  0
   -4.0276    2.0075   -0.6827 H   0  0  0  0  0  0  0  0  0  0  0  0
   -3.6791    0.9899    0.5700 H   0  0  0  0  0  0  0  0  0  0  0  0
   -2.6723    2.2935    0.2764 H   0  0  0  0  0  0  0  0  0  0  0  0
    0.3955   -1.9820    1.6342 H   0  0  0  0  0  0  0  0  0  0  0  0
   -1.1108   -1.8862    0.9179 H   0  0  0  0  0  0  0  0  0  0  0  0
   -0.3779   -0.5344    1.5522 H   0  0  0  0  0  0  0  0  0  0  0  0
    2.6723    2.2935   -0.2764 H   0  0  0  0  0  0  0  0  0  0  0  0
    4.0277    2.0075    0.6826 H   0  0  0  0  0  0  0  0  0  0  0  0
    3.6791    0.9899   -0.5701 H   0  0  0  0  0  0  0  0  0  0  0  0
    4.3524   -1.8531    1.1461 O   0  0  0  0  0  0  0  0  0  0  0  0
   -1.2104   -1.8052    3.0078 C   0  0  0  0  0  0  0  0  0  0  0  0
   -1.3146   -2.8799    3.1560 H   0  0  0  0  0  0  0  0  0  0  0  0
   -0.6159   -1.3758    3.8140 H   0  0  0  0  0  0  0  0  0  0  0  0
   -2.1962   -1.3433    2.9702 H   0  0  0  0  0  0  0  0  0  0  0  0
    1.2104   -1.8053   -3.0077 C   0  0  0  0  0  0  0  0  0  0  0  0
    1.3145   -2.8800   -3.1559 H   0  0  0  0  0  0  0  0  0  0  0  0
    0.6159   -1.3760   -3.8140 H   0  0  0  0  0  0  0  0  0  0  0  0
    2.1962   -1.3435   -2.9701 H   0  0  0  0  0  0  0  0  0  0  0  0
   -4.4986    2.8469    1.1777 C   0  0  0  0  0  0  0  0  0  0  0  0
   -4.0661    2.7954    2.1764 H   0  0  0  0  0  0  0  0  0  0  0  0
   -4.4683    3.8783    0.8270 H   0  0  0  0  0  0  0  0  0  0  0  0
   -5.5280    2.4889    1.2035 H   0  0  0  0  0  0  0  0  0  0  0  0
    4.4986    2.8468   -1.1779 C   0  0  0  0  0  0  0  0  0  0  0  0
    4.0662    2.7952   -2.1765 H   0  0  0  0  0  0  0  0  0  0  0  0
    4.4682    3.8783   -0.8273 H   0  0  0  0  0  0  0  0  0  0  0  0
    5.5280    2.4889   -1.2036 H   0  0  0  0  0  0  0  0  0  0  0  0
  1  2  1  0  0  0  0
  3  5  1  0  0  0  0
  3  1  1  0  0  0  0
  4  1  2  0  0  0  0
  6  9  2  0  0  0  0
  6 33  1  0  0  0  0
  6  8  1  0  0  0  0
  7  6  2  0  0  0  0
 10  8  1  0  0  0  0
 11 14  1  0  0  0  0
 11 12  1  0  0  0  0
 13 11  2  0  0  0  0
 15 11  2  0  0  0  0
 16  1  2  0  0  0  0
 17 30  1  0  0  0  0
 17 31  1  0  0  0  0
 18 25  1  0  0  0  0
 18 42  1  0  0  0  0
 19 22  1  0  0  0  0
 19 21  1  0  0  0  0
 19 23  1  0  0  0  0
 20 34  1  0  0  0  0
 24 18  1  0  0  0  0
 26 18  1  0  0  0  0
 27 20  1  0  0  0  0
 28 20  1  0  0  0  0
 29 20  1  0  0  0  0
 32 17  1  0  0  0  0
 34 35  1  0  0  0  0
 34 36  1  0  0  0  0
 37 34  1  0  0  0  0
 38 41  1  0  0  0  0
 38 19  1  0  0  0  0
 39 38  1  0  0  0  0
 40 38  1  0  0  0  0
 42 45  1  0  0  0  0
 42 43  1  0  0  0  0
 44 42  1  0  0  0  0
 46 48  1  0  0  0  0
 46 17  1  0  0  0  0
 47 46  1  0  0  0  0
 49 46  1  0  0  0  0
M  RAD  4   2   2  12   2  14   2  33   2
M  END
$$$$
