3sa_3ma.log
 OpenBabel02271919103D
Gaussian users/kemi/kmacke/programs/G09D/g09/g09 # opt freq 6-31++g(d,p) wb97xd
 42 36  0  0  0  0  0  0  0  0999 V2000
   -2.9354   -1.4414    0.0434 S   0  0  0  0  0  0  0  0  0  0  0  0
   -3.4662   -0.0960    0.3062 O   0  0  0  0  0  0  0  0  0  0  0  0
   -4.2917   -2.3287   -0.0142 O   0  0  0  0  0  0  0  0  0  0  0  0
   -2.2914   -1.5882   -1.2767 O   0  0  0  0  0  0  0  0  0  0  0  0
   -4.0412   -3.2619   -0.0456 H   0  0  0  0  0  0  0  0  0  0  0  0
    3.2803   -0.6727    0.3620 S   0  0  0  0  0  0  0  0  0  0  0  0
    2.1819   -1.7003    0.2708 O   0  0  0  0  0  0  0  0  0  0  0  0
    3.4630   -0.1211   -1.1406 O   0  0  0  0  0  0  0  0  0  0  0  0
    2.7835    0.4797    1.1676 O   0  0  0  0  0  0  0  0  0  0  0  0
    2.7413    0.5148   -1.3527 H   0  0  0  0  0  0  0  0  0  0  0  0
    0.4559    2.0374   -0.5993 S   0  0  0  0  0  0  0  0  0  0  0  0
   -0.3440    3.1738   -1.0770 O   0  0  0  0  0  0  0  0  0  0  0  0
    1.2154    1.3404   -1.6725 O   0  0  0  0  0  0  0  0  0  0  0  0
   -0.3771    1.0739    0.1697 O   0  0  0  0  0  0  0  0  0  0  0  0
    1.5224    2.6552    0.3933 O   0  0  0  0  0  0  0  0  0  0  0  0
    2.1096    1.9114    0.7168 H   0  0  0  0  0  0  0  0  0  0  0  0
   -2.1331   -2.0167    1.1388 O   0  0  0  0  0  0  0  0  0  0  0  0
   -2.8986    2.4540   -0.3329 N   0  0  0  0  0  0  0  0  0  0  0  0
    0.2362   -0.8637    2.0328 N   0  0  0  0  0  0  0  0  0  0  0  0
    0.4203   -1.3552   -1.8253 N   0  0  0  0  0  0  0  0  0  0  0  0
    0.1079    0.0170    1.5033 H   0  0  0  0  0  0  0  0  0  0  0  0
    0.9831   -1.3592    1.5047 H   0  0  0  0  0  0  0  0  0  0  0  0
   -0.6513   -1.3807    1.9163 H   0  0  0  0  0  0  0  0  0  0  0  0
    1.0279   -1.6011   -1.0147 H   0  0  0  0  0  0  0  0  0  0  0  0
    0.5671   -0.3406   -1.9580 H   0  0  0  0  0  0  0  0  0  0  0  0
   -0.5783   -1.4945   -1.5724 H   0  0  0  0  0  0  0  0  0  0  0  0
   -1.9922    2.7390   -0.7661 H   0  0  0  0  0  0  0  0  0  0  0  0
   -2.9375    1.4110   -0.2618 H   0  0  0  0  0  0  0  0  0  0  0  0
   -3.6706    2.7615   -0.9203 H   0  0  0  0  0  0  0  0  0  0  0  0
    4.5606   -1.2125    0.7454 O   0  0  0  0  0  0  0  0  0  0  0  0
    0.6267   -0.6274    3.4365 C   0  0  0  0  0  0  0  0  0  0  0  0
   -2.9858    3.0205    1.0344 C   0  0  0  0  0  0  0  0  0  0  0  0
    0.8124   -2.1258   -3.0237 C   0  0  0  0  0  0  0  0  0  0  0  0
    1.5613   -0.0668    3.4400 H   0  0  0  0  0  0  0  0  0  0  0  0
    0.7675   -1.5853    3.9367 H   0  0  0  0  0  0  0  0  0  0  0  0
   -0.1575   -0.0622    3.9404 H   0  0  0  0  0  0  0  0  0  0  0  0
   -2.1156    2.6677    1.5857 H   0  0  0  0  0  0  0  0  0  0  0  0
   -3.8975    2.6637    1.5117 H   0  0  0  0  0  0  0  0  0  0  0  0
   -2.9738    4.1086    0.9796 H   0  0  0  0  0  0  0  0  0  0  0  0
    1.8678   -1.9454   -3.2275 H   0  0  0  0  0  0  0  0  0  0  0  0
    0.2063   -1.8088   -3.8720 H   0  0  0  0  0  0  0  0  0  0  0  0
    0.6520   -3.1865   -2.8337 H   0  0  0  0  0  0  0  0  0  0  0  0
  1  2  2  0  0  0  0
  1 17  1  0  0  0  0
  3  1  1  0  0  0  0
  4  1  2  0  0  0  0
  5  3  1  0  0  0  0
  6 30  2  0  0  0  0
  6  9  1  0  0  0  0
  7  6  2  0  0  0  0
  8  6  1  0  0  0  0
 10  8  1  0  0  0  0
 11 14  1  0  0  0  0
 11 15  1  0  0  0  0
 12 11  2  0  0  0  0
 13 11  2  0  0  0  0
 15 16  1  0  0  0  0
 18 28  1  0  0  0  0
 18 32  1  0  0  0  0
 19 31  1  0  0  0  0
 20 26  1  0  0  0  0
 20 24  1  0  0  0  0
 21 19  1  0  0  0  0
 22 19  1  0  0  0  0
 23 19  1  0  0  0  0
 25 20  1  0  0  0  0
 27 18  1  0  0  0  0
 29 18  1  0  0  0  0
 31 34  1  0  0  0  0
 31 35  1  0  0  0  0
 31 36  1  0  0  0  0
 32 38  1  0  0  0  0
 32 37  1  0  0  0  0
 33 42  1  0  0  0  0
 33 20  1  0  0  0  0
 39 32  1  0  0  0  0
 40 33  1  0  0  0  0
 41 33  1  0  0  0  0
M  RAD  3   9   2  14   2  17   2
M  END
$$$$
