4sa_4ma.log
 OpenBabel02271919103D
Gaussian users/kemi/kmacke/programs/G09D/g09/g09 # opt freq wb97xd/6-31++g(d,p) 
 56 48  0  0  0  0  0  0  0  0999 V2000
   -3.9319   -0.6419   -0.0525 S   0  0  0  0  0  0  0  0  0  0  0  0
   -3.4289    0.4611   -0.9546 O   0  0  0  0  0  0  0  0  0  0  0  0
   -3.2315   -0.3276    1.3692 O   0  0  0  0  0  0  0  0  0  0  0  0
   -5.3523   -0.5761    0.1948 O   0  0  0  0  0  0  0  0  0  0  0  0
   -3.3683   -1.9285   -0.5199 O   0  0  0  0  0  0  0  0  0  0  0  0
   -2.3148   -0.7043    1.3675 H   0  0  0  0  0  0  0  0  0  0  0  0
   -0.3256   -2.6047    0.6500 S   0  0  0  0  0  0  0  0  0  0  0  0
   -0.7553   -1.3211    1.2851 O   0  0  0  0  0  0  0  0  0  0  0  0
   -1.5995   -3.5401    0.6292 O   0  0  0  0  0  0  0  0  0  0  0  0
    0.7045   -3.3109    1.4027 O   0  0  0  0  0  0  0  0  0  0  0  0
    0.0781   -2.3675   -0.7711 O   0  0  0  0  0  0  0  0  0  0  0  0
   -2.3605   -3.0393    0.2245 H   0  0  0  0  0  0  0  0  0  0  0  0
    0.3256    2.6039   -0.6506 S   0  0  0  0  0  0  0  0  0  0  0  0
    1.5994    3.5395   -0.6306 O   0  0  0  0  0  0  0  0  0  0  0  0
   -0.7047    3.3094   -1.4038 O   0  0  0  0  0  0  0  0  0  0  0  0
   -0.0781    2.3680    0.7708 O   0  0  0  0  0  0  0  0  0  0  0  0
    0.7554    1.3199   -1.2846 O   0  0  0  0  0  0  0  0  0  0  0  0
   -2.8503    2.7312    0.3807 N   0  0  0  0  0  0  0  0  0  0  0  0
   -1.9246    2.5483    0.8055 H   0  0  0  0  0  0  0  0  0  0  0  0
   -3.0916    1.8782   -0.1871 H   0  0  0  0  0  0  0  0  0  0  0  0
   -2.6831    3.4965   -0.2754 H   0  0  0  0  0  0  0  0  0  0  0  0
   -1.1841   -0.4077   -2.2922 N   0  0  0  0  0  0  0  0  0  0  0  0
   -0.4717    0.3302   -2.1675 H   0  0  0  0  0  0  0  0  0  0  0  0
   -2.0550   -0.0742   -1.8258 H   0  0  0  0  0  0  0  0  0  0  0  0
   -0.8351   -1.2201   -1.7485 H   0  0  0  0  0  0  0  0  0  0  0  0
    1.1834    0.4078    2.2918 N   0  0  0  0  0  0  0  0  0  0  0  0
    2.0544    0.0744    1.8256 H   0  0  0  0  0  0  0  0  0  0  0  0
    0.8343    1.2201    1.7480 H   0  0  0  0  0  0  0  0  0  0  0  0
    0.4712   -0.3303    2.1671 H   0  0  0  0  0  0  0  0  0  0  0  0
    2.8503   -2.7303   -0.3806 N   0  0  0  0  0  0  0  0  0  0  0  0
    3.0917   -1.8775    0.1874 H   0  0  0  0  0  0  0  0  0  0  0  0
    1.9248   -2.5470   -0.8058 H   0  0  0  0  0  0  0  0  0  0  0  0
    2.6824   -3.4956    0.2753 H   0  0  0  0  0  0  0  0  0  0  0  0
    3.9322    0.6423    0.0532 S   0  0  0  0  0  0  0  0  0  0  0  0
    3.3681    1.9290    0.5199 O   0  0  0  0  0  0  0  0  0  0  0  0
    5.3526    0.5769   -0.1941 O   0  0  0  0  0  0  0  0  0  0  0  0
    3.4293   -0.4605    0.9556 O   0  0  0  0  0  0  0  0  0  0  0  0
    3.2319    0.3272   -1.3685 O   0  0  0  0  0  0  0  0  0  0  0  0
    2.3604    3.0392   -0.2254 H   0  0  0  0  0  0  0  0  0  0  0  0
    2.3150    0.7035   -1.3669 H   0  0  0  0  0  0  0  0  0  0  0  0
    3.9105   -3.0016   -1.3761 C   0  0  0  0  0  0  0  0  0  0  0  0
    4.0124   -2.1195   -2.0079 H   0  0  0  0  0  0  0  0  0  0  0  0
    4.8509   -3.1792   -0.8555 H   0  0  0  0  0  0  0  0  0  0  0  0
    3.6404   -3.8720   -1.9738 H   0  0  0  0  0  0  0  0  0  0  0  0
   -1.4395   -0.7554   -3.7035 C   0  0  0  0  0  0  0  0  0  0  0  0
   -2.2077   -1.5273   -3.7393 H   0  0  0  0  0  0  0  0  0  0  0  0
   -1.7842    0.1310   -4.2351 H   0  0  0  0  0  0  0  0  0  0  0  0
   -0.5216   -1.1252   -4.1603 H   0  0  0  0  0  0  0  0  0  0  0  0
    1.4386    0.7557    3.7031 C   0  0  0  0  0  0  0  0  0  0  0  0
    1.7833   -0.1307    4.2349 H   0  0  0  0  0  0  0  0  0  0  0  0
    2.2067    1.5277    3.7389 H   0  0  0  0  0  0  0  0  0  0  0  0
    0.5206    1.1254    4.1597 H   0  0  0  0  0  0  0  0  0  0  0  0
   -3.9101    3.0022    1.3766 C   0  0  0  0  0  0  0  0  0  0  0  0
   -4.8509    3.1791    0.8566 H   0  0  0  0  0  0  0  0  0  0  0  0
   -4.0113    2.1203    2.0088 H   0  0  0  0  0  0  0  0  0  0  0  0
   -3.6402    3.8729    1.9741 H   0  0  0  0  0  0  0  0  0  0  0  0
  1  4  1  0  0  0  0
  1  3  1  0  0  0  0
  2  1  2  0  0  0  0
  5  1  2  0  0  0  0
  6  3  1  0  0  0  0
  7  8  2  0  0  0  0
  7 10  1  0  0  0  0
  9  7  1  0  0  0  0
 11  7  2  0  0  0  0
 12  9  1  0  0  0  0
 13 14  1  0  0  0  0
 13 16  1  0  0  0  0
 14 39  1  0  0  0  0
 15 13  2  0  0  0  0
 17 13  2  0  0  0  0
 18 19  1  0  0  0  0
 18 53  1  0  0  0  0
 20 18  1  0  0  0  0
 21 18  1  0  0  0  0
 22 23  1  0  0  0  0
 22 24  1  0  0  0  0
 22 25  1  0  0  0  0
 26 49  1  0  0  0  0
 27 26  1  0  0  0  0
 28 26  1  0  0  0  0
 29 26  1  0  0  0  0
 30 31  1  0  0  0  0
 30 33  1  0  0  0  0
 32 30  1  0  0  0  0
 34 35  2  0  0  0  0
 34 37  1  0  0  0  0
 36 34  2  0  0  0  0
 38 40  1  0  0  0  0
 38 34  1  0  0  0  0
 41 43  1  0  0  0  0
 41 30  1  0  0  0  0
 42 41  1  0  0  0  0
 44 41  1  0  0  0  0
 45 22  1  0  0  0  0
 46 45  1  0  0  0  0
 47 45  1  0  0  0  0
 48 45  1  0  0  0  0
 49 51  1  0  0  0  0
 49 52  1  0  0  0  0
 49 50  1  0  0  0  0
 53 56  1  0  0  0  0
 53 55  1  0  0  0  0
 54 53  1  0  0  0  0
M  RAD  4   4   2  10   2  16   2  37   2
M  END
$$$$
