33
1msa2eda-01
S       -1.72587300       0.71999800      -0.02594200
O       -1.65476700      -0.16534600      -1.21080900
O       -0.76023600       1.84635000      -0.08832000
O       -1.61516200      -0.03875500       1.25857500
H       -0.04720100      -0.75026400       1.28452700
C       -3.35732100       1.44335400      -0.01854500
H       -3.48347200       1.99521700      -0.95022100
H       -4.08813900       0.63774500       0.05343500
H       -3.43099600       2.11136400       0.83968400
H        1.98320700      -2.85120100       0.67960700
H        0.88885900      -2.91890400       2.08653100
H        0.02755600      -4.24601700       0.19263600
H       -1.07378300      -2.92753500       0.61297400
H       -0.32991600      -3.36425400      -1.85282400
H       -0.52497500      -1.83042100      -1.32838400
H        1.57613600      -0.60879000       1.65948100
H        1.13824600      -0.66970300       0.07647400
C        0.99744600      -2.56642500       1.05668100
C       -0.09400700      -3.15840400       0.16918500
N        0.91408300      -1.09165300       1.04628300
N        0.03378100      -2.67757200      -1.20318300
H        2.02717200       2.88537800      -0.48020800
H        3.57765200       2.51398800       0.27940400
H        3.29637800       1.37891100      -1.87448300
H        3.55041600       0.24214600      -0.53999700
H        0.81785100       0.86345800      -1.45428400
H        1.68915200      -0.41594800      -2.02936000
H        2.13900100       2.27807400       2.00489400
H        0.92086500       1.70518500       1.08839700
C        2.60063200       2.09217900       0.02187200
C        2.83588900       0.95553700      -0.97017200
N        1.92966700       1.63790300       1.24657100
N        1.59467300       0.23363100      -1.25580300
33
1msa2eda-02
S       -1.69081300      -0.89652300      -0.07691000
O       -1.95614800       0.15593100       0.93107800
O       -0.75507200      -1.93913300       0.40463100
O       -1.27027800      -0.31790700      -1.39259100
H        0.08658600       0.67289900      -1.11871600
C       -3.24819300      -1.71009900      -0.39470400
H       -3.59380500      -2.15251700       0.53982100
H       -3.95719400      -0.96377300      -0.75343600
H       -3.08364300      -2.48035800      -1.14849400
H        3.57322400      -0.72721600       1.34087000
H        2.61163800      -2.11795700       1.84525400
H        3.13016600      -2.67529600      -0.32504600
H        1.49850300      -2.00376700      -0.48011800
H        3.98342500      -0.54969300      -1.10129800
H        2.91137800      -1.13265200      -2.17570800
H        0.64286000      -0.82917500       1.50226100
H        1.64870300       0.10678100       2.41041200
C        2.61610000      -1.24090500       1.18243400
C        2.54032900      -1.75039100      -0.25734000
N        1.52614700      -0.31341200       1.49564100
N        2.99561200      -0.74614200      -1.23973800
H        1.62541000       3.15133400      -0.47708200
H        0.66048400       2.91575300      -1.95963200
H       -0.58839300       4.18174600      -0.21870700
H       -1.39047900       2.65991100      -0.63189100
H       -0.84605000       3.38035500       1.86782800
H       -0.91234600       1.81294900       1.39765400
H        1.75954000       0.80881300      -1.23669600
H        1.07590900       0.88803500       0.22158500
C        0.74225200       2.66408000      -0.89820600
C       -0.50968700       3.09291900      -0.13677400
N        0.92337300       1.20510800      -0.77454800
N       -0.41309500       2.69351000       1.26354500
33
1msa2eda-03
S        0.62007600       1.74141300      -0.03290600
O        1.68353600       1.03236700      -0.78235500
O        0.60169000       1.42394900       1.41292400
O       -0.72360400       1.55827400      -0.67182800
H       -1.02816900      -0.15319600      -0.79321400
C        0.97174400       3.48641800      -0.16965800
H        0.98369800       3.75005600      -1.22729100
H        0.19098000       4.03423300       0.35832000
H        1.94526200       3.66837000       0.28608600
H       -2.73121000      -0.81982300       1.48396700
H       -4.21605800      -1.33653400       0.67521200
H       -2.40106600      -2.72069000      -0.12225100
H       -2.92406800      -1.65053100      -1.44931900
H       -0.52109500      -1.30569600       0.31781200
H       -0.44756700      -1.66029600      -1.24761600
H       -4.21962700       0.97500000       0.49912600
H       -2.67954700       1.06855400      -0.05745800
C       -3.25787300      -0.83240500       0.51384300
C       -2.45451300      -1.68293700      -0.46377000
N       -3.51679300       0.48669800      -0.04237900
N       -1.07248100      -1.17471800      -0.57753300
H        2.49418200      -0.70455100       0.71538900
H        2.78776100      -2.12994500       1.71474600
H        3.20577800      -2.78782600      -0.48115100
H        1.65396000      -3.53132500      -0.07868000
H        1.73918700      -0.93844500      -1.45976500
H        1.81134800      -2.35434400      -2.29546900
H        0.57592800      -2.17055700       2.27977200
H        0.68185800      -0.56003200       1.91019000
C        2.10609400      -1.69417000       0.97292200
C        2.14655100      -2.57051400      -0.27877000
N        0.75631600      -1.50784900       1.53377700
N        1.49185200      -1.93128800      -1.43089900
