25
1sa1fa1tma-1
S       -0.38766100      -0.73896600      -0.08351800
O       -1.54404600      -1.29017900       0.64584200
O        0.63313800      -1.70348000      -0.48827900
O       -0.94654000      -0.13953400      -1.45833700
O        0.21545000       0.42485200       0.65077300
H       -1.77315900       0.37619300      -1.26913100
H        1.70205600       0.45405000       0.36687200
H       -4.85208000       1.53529700       0.31481800
H       -2.87937000      -0.42874400       0.94496400
C       -3.92468600       0.97187200       0.15427400
O       -3.72523300       0.09073700       1.09664000
O       -3.20496800       1.18649400      -0.80926600
N        2.76495200       0.45861800       0.15984300
C        2.90999400       0.35506300      -1.31331300
H        2.42586500      -0.56681300      -1.63602500
H        2.40633400       1.20535500      -1.77441600
H        3.97156500       0.35678100      -1.57365600
C        3.30316100       1.73126300       0.68495600
H        2.79893800       2.56015000       0.18692000
H        3.10687600       1.78404400       1.75630900
H        4.37888200       1.78263600       0.49898600
C        3.33676100      -0.72300600       0.84953800
H        3.15948100      -0.62060700       1.92067300
H        2.81897800      -1.60863900       0.48055100
H        4.40975900      -0.77883400       0.64882300
25
1sa1fa1tma-2
S       -0.38032900      -0.45177600      -0.24362400
O        0.80712200      -0.85480400      -1.04968900
O       -1.51295400      -1.38398700      -0.38661400
O       -0.01333100      -0.14132200       1.14549400
O       -0.82105100       0.92476900      -0.94141400
H       -1.73322500       1.15678800      -0.62742000
H       -5.14269300       0.81635900       0.64721400
H       -3.00115500      -1.00072400       0.14076800
C       -4.12885200       0.53911300       0.33305800
O       -3.92767900      -0.74726100       0.43103700
O       -3.32790500       1.37674600      -0.05292500
N        2.92069500       0.13973000       0.09870100
C        2.58842000       1.56736200       0.33411000
H        2.35815200       2.03489400      -0.62362200
H        1.70580100       1.60743300       0.97282400
H        3.44021800       2.06369700       0.80581400
C        3.12088000      -0.59048200       1.37399600
H        2.19893400      -0.51087600       1.95062100
H        3.31670900      -1.63964700       1.14998400
H        3.96692200      -0.15525200       1.91178000
C        4.05997100      -0.02119700      -0.82993700
H        4.21338800      -1.08366100      -1.02099500
H        3.82445100       0.48275900      -1.76775600
H        4.95971400       0.41296700      -0.38706600
H        2.05704900      -0.29635200      -0.37954700
25
1sa1fa1tma-4
S        1.79959300      -0.11075800       0.13678200
O        2.56617500      -1.28916100       0.49878300
O        0.53133300      -0.46056900      -0.61548600
O        1.52472700       0.90164600       1.15197100
O        2.68463100       0.70357300      -0.97169300
H        3.19300200       0.05324400      -1.47423600
H       -2.37866300      -3.60858800       0.16226600
H       -0.14363800      -1.96098300      -0.45966900
C       -1.85462600      -2.65157500       0.03518900
O       -0.62474500      -2.83285200      -0.37490900
O       -2.38814500      -1.57865600       0.25627900
N       -1.30914100       1.44899300      -0.07378400
C       -0.54647200       2.68922200      -0.36893900
H        0.33507100       2.70854400       0.27149100
H       -0.23419700       2.66636600      -1.41362500
H       -1.18857400       3.55351100      -0.18475200
C       -2.50017700       1.31492500      -0.94677100
H       -2.17588400       1.34798200      -1.98772700
H       -2.97506000       0.35766500      -0.73635300
H       -3.18444700       2.14210400      -0.74385100
C       -1.65923100       1.34936700       1.36769100
H       -2.17066600       0.40031400       1.52464300
H       -0.72994500       1.37299600       1.93712300
H       -2.30473600       2.18985500       1.63392800
H       -0.66053300       0.64269100      -0.28383400
