39
2msa1nta1am1eda-1
H        0.89329300      -0.57542900       2.03230200
H       -0.11651300      -1.55673300       3.11110700
H        0.40607500      -2.87697200       1.23396800
H       -1.32835500      -2.48784700       1.12461400
H        0.62628900      -2.16410900      -0.76429800
H       -0.99742400      -1.59723800      -0.85760600
H       -1.25572600       0.38357200       3.12382500
H       -0.76652000       0.88073300       1.63650400
C       -0.08800800      -1.03872800       2.15070600
C       -0.31749500      -2.07795900       1.06558100
N       -1.11390000       0.04535900       2.17439700
N       -0.10362800      -1.57731800      -0.31969900
N        4.04853400       0.84939600      -0.01340100
H        3.42510300       1.69682500       0.02140300
H        4.25512400       0.59565700      -0.97905400
H        4.92133200       1.00392300       0.48327500
N        3.05186300      -2.08489900      -0.50393400
O        4.10019600      -1.81308200      -1.10087400
O        2.24705600      -2.93058400      -0.94546500
O        2.76831000      -1.47558000       0.58002300
H        3.54882200       0.00564000       0.37940100
S        0.93035300       2.21000100      -0.03352800
O        2.24704600       2.89977200       0.04943800
O        0.22365900       2.16627400       1.27382100
O        1.09468900       0.85332100      -0.62766900
H        0.26792200      -0.60171400      -0.35855200
C       -0.10107400       3.14815300      -1.13373000
H       -0.22693100       4.14315100      -0.70617200
H        0.39496800       3.20070200      -2.10294700
H       -1.05586900       2.62235800      -1.20281400
S       -3.24431800      -0.34334100      -0.43627600
O       -2.68613800      -1.43708700      -1.27435800
O       -2.49064200       0.92069400      -0.54809500
O       -3.37900900      -0.76792900       0.99858400
H       -2.05127800      -0.26427900       1.78223700
C       -4.90205200      -0.06391700      -1.02228700
H       -4.83970100       0.22914100      -2.07043200
H       -5.46047600      -0.99360200      -0.91394200
H       -5.34634100       0.73020900      -0.42235100
39
2msa1nta1am1eda-3
H       -0.93814200      -1.24927000      -1.79539200
H        0.18835500      -2.34636200      -2.60098800
H       -0.09614700      -3.20437300      -0.43586300
H        1.54072900      -2.50121500      -0.47995000
H       -0.73097500      -1.79182300       1.15216000
H        0.96665000      -1.49670700       1.35260100
H        1.05981500      -0.33833000      -3.15479400
H        0.56664400       0.45722500      -1.80173100
C        0.09550900      -1.60121100      -1.80921300
C        0.47261600      -2.27787300      -0.50207100
N        0.98462300      -0.44718000      -2.14543700
N        0.15352800      -1.47118900       0.71152000
N       -3.72796400       0.98787600       1.18179200
H       -4.37032000       1.28589400       1.90914000
H       -3.52398800       1.74710300       0.50282000
H       -2.80912000       0.73877300       1.56902500
N       -3.06418600      -1.96514500       0.30013000
O       -2.53879200      -1.68782700       1.41631400
O       -2.52858200      -2.77999700      -0.45823000
O       -4.12751300      -1.37957600      -0.03302400
H       -4.06680300       0.10759400       0.70515000
S        3.21206700      -0.23069200       0.46091000
O        2.81368300      -1.23575600       1.47934800
O        2.30955900       0.93893500       0.41973600
O        3.35750700      -0.84128500      -0.90257400
H        1.95735700      -0.56527200      -1.74346800
C        4.83725400       0.33537600       0.91938600
H        5.50594600      -0.52528300       0.93407900
H        5.16379000       1.06772700       0.18109800
H        4.76675300       0.78675000       1.90913200
S       -0.98101900       2.14959500      -0.33320600
O       -2.31717600       2.78750100      -0.39494400
O       -0.44270200       1.76033200      -1.66256000
O       -0.99251400       0.98614800       0.61161800
H       -0.03040700      -0.46033000       0.52746800
C        0.15511300       3.34040700       0.33983800
H        0.19949700       4.18327200      -0.35045200
H       -0.22260600       3.65767300       1.31214800
H        1.12348500       2.84597700       0.43540400
39
2msa1nta1am1eda-2
N        0.85568700      -2.26258900       1.31088300
H        1.44098500      -1.44390600       1.58780400
H       -0.11667600      -2.16742600       1.69655400
H        0.78545300      -2.25006600       0.28436500
H        1.29263400      -3.12622600       1.61884100
H       -0.44195500       3.74681600      -1.09923000
H       -0.45278500       2.13278000      -1.86127800
H       -2.77410400       3.26236500      -1.61709400
H       -2.64037300       1.62290600      -0.98132900
H       -3.34619500       3.88427300       0.48433900
H       -3.05348700       2.36246800       1.06068800
H        0.86199800       2.16299000       0.20557500
H       -0.56218800       2.64505600       1.02052200
C       -0.79118900       2.71584400      -1.00269900
C       -2.31272700       2.65685500      -0.83137800
N       -0.17530900       2.14125400       0.21592600
N       -2.67750400       3.12688000       0.50414200
H       -0.47125400       1.13562700       0.30278000
N       -0.10557800      -1.34398800      -2.21824700
O        0.26125700      -2.34116500      -1.60725300
O       -1.12761500      -1.22492100      -2.84429100
O        0.70407100      -0.27845000      -2.22059200
H        1.49322600      -0.47266600      -1.59988300
S       -2.20243500      -0.84636400       1.00433200
O       -2.97189100       0.28186200       1.54745800
O       -1.76168400      -1.85417000       2.00605400
O       -1.02309500      -0.39739100       0.18720200
C       -3.25651900      -1.70946400      -0.14670900
H       -4.10723900      -2.10691600       0.40736200
H       -3.58545400      -0.99963400      -0.90588000
H       -2.67994600      -2.51146900      -0.60862700
S        2.99670900       0.38471600       0.41691200
O        2.49514300      -0.06625300       1.73928200
O        2.56473200       1.75311300       0.05360800
O        2.67981500      -0.62277900      -0.64662400
C        4.77240000       0.42989600       0.52013600
H        5.04348400       1.13348500       1.30731900
H        5.12740300      -0.57289600       0.75721900
H        5.15938000       0.76033600      -0.44373000
