1a_1dma_H.log
 OpenBabel02281910163D
Gaussian users/kemi/kmacke/programs/G09D/g09/g09 # opt freq 6-31++g(d,p) wb97xd
 15 13  0  0  0  0  0  0  0  0999 V2000
    0.6542   -0.0000   -1.4244 H   0  0  0  0  0  0  0  0  0  0  0  0
   -2.7090    0.8228   -0.3233 H   0  0  0  0  0  0  0  0  0  0  0  0
    0.5003   -0.0000   -0.4149 N   0  0  0  0  0  0  0  0  0  0  0  0
   -0.5652   -0.0001   -0.2622 H   0  0  0  0  0  0  0  0  0  0  0  0
    1.0677    1.2472    0.1651 C   0  0  0  0  0  0  0  0  0  0  0  0
    2.1451    1.2728   -0.0002 H   0  0  0  0  0  0  0  0  0  0  0  0
    0.8585    1.2587    1.2351 H   0  0  0  0  0  0  0  0  0  0  0  0
    0.5974    2.1073   -0.3114 H   0  0  0  0  0  0  0  0  0  0  0  0
    1.0679   -1.2472    0.1651 C   0  0  0  0  0  0  0  0  0  0  0  0
    2.1453   -1.2727   -0.0005 H   0  0  0  0  0  0  0  0  0  0  0  0
    0.5974   -2.1073   -0.3111 H   0  0  0  0  0  0  0  0  0  0  0  0
    0.8591   -1.2584    1.2351 H   0  0  0  0  0  0  0  0  0  0  0  0
   -2.2453   -0.0001    0.0559 N   0  0  0  0  0  0  0  0  0  0  0  0
   -2.7150   -0.8043   -0.3546 H   0  0  0  0  0  0  0  0  0  0  0  0
   -2.4667   -0.0184    1.0490 H   0  0  0  0  0  0  0  0  0  0  0  0
  1  3  1  0  0  0  0
  2 13  1  0  0  0  0
  3  4  1  0  0  0  0
  3  5  1  0  0  0  0
  3  9  1  0  0  0  0
  5  7  1  0  0  0  0
  6  5  1  0  0  0  0
  8  5  1  0  0  0  0
  9 12  1  0  0  0  0
 10  9  1  0  0  0  0
 11  9  1  0  0  0  0
 13 15  1  0  0  0  0
 14 13  1  0  0  0  0
M  END
$$$$
