1sa_2a_1dma_H.log
 OpenBabel02281910163D
Gaussian users/kemi/kmacke/programs/G09D/g09/g09 # opt freq 6-31++g(d,p) wb97xd
 26 22  0  0  0  0  0  0  0  0999 V2000
    0.6708    0.0807   -0.1803 S   0  0  0  0  0  0  0  0  0  0  0  0
    1.9914    0.4934   -0.7262 O   0  0  0  0  0  0  0  0  0  0  0  0
   -0.1981   -0.5624   -1.1859 O   0  0  0  0  0  0  0  0  0  0  0  0
   -0.0131    1.2175    0.5061 O   0  0  0  0  0  0  0  0  0  0  0  0
    0.9368   -0.9656    0.9630 O   0  0  0  0  0  0  0  0  0  0  0  0
    2.3086   -2.9221   -0.0675 N   0  0  0  0  0  0  0  0  0  0  0  0
    1.7901   -3.3453   -0.8327 H   0  0  0  0  0  0  0  0  0  0  0  0
    3.1623   -2.5351   -0.4613 H   0  0  0  0  0  0  0  0  0  0  0  0
    1.4834   -1.7767    0.5811 H   0  0  0  0  0  0  0  0  0  0  0  0
    2.5725   -3.6633    0.5754 H   0  0  0  0  0  0  0  0  0  0  0  0
   -2.5587    0.0924   -0.0063 N   0  0  0  0  0  0  0  0  0  0  0  0
   -3.7841    0.5670   -0.6902 C   0  0  0  0  0  0  0  0  0  0  0  0
   -2.7852   -0.9236    1.0538 C   0  0  0  0  0  0  0  0  0  0  0  0
   -4.4551    1.0186    0.0410 H   0  0  0  0  0  0  0  0  0  0  0  0
   -3.5046    1.3006   -1.4457 H   0  0  0  0  0  0  0  0  0  0  0  0
   -4.2743   -0.2828   -1.1657 H   0  0  0  0  0  0  0  0  0  0  0  0
   -1.8639   -0.2912   -0.6858 H   0  0  0  0  0  0  0  0  0  0  0  0
   -2.0210    0.8741    0.3951 H   0  0  0  0  0  0  0  0  0  0  0  0
   -3.4455   -0.5087    1.8157 H   0  0  0  0  0  0  0  0  0  0  0  0
   -3.2418   -1.8053    0.6041 H   0  0  0  0  0  0  0  0  0  0  0  0
   -1.8200   -1.1830    1.4901 H   0  0  0  0  0  0  0  0  0  0  0  0
    2.2191    2.8663    0.3528 N   0  0  0  0  0  0  0  0  0  0  0  0
    2.8982    2.9903    1.1009 H   0  0  0  0  0  0  0  0  0  0  0  0
    2.3741    1.9475   -0.1738 H   0  0  0  0  0  0  0  0  0  0  0  0
    1.2700    2.7231    0.7345 H   0  0  0  0  0  0  0  0  0  0  0  0
    2.2396    3.6648   -0.2783 H   0  0  0  0  0  0  0  0  0  0  0  0
  1  4  1  0  0  0  0
  1  5  1  0  0  0  0
  2  1  2  0  0  0  0
  3  1  2  0  0  0  0
  6 10  1  0  0  0  0
  7  6  1  0  0  0  0
  8  6  1  0  0  0  0
  9  5  1  0  0  0  0
 11 18  1  0  0  0  0
 11 13  1  0  0  0  0
 12 11  1  0  0  0  0
 12 14  1  0  0  0  0
 13 21  1  0  0  0  0
 13 19  1  0  0  0  0
 15 12  1  0  0  0  0
 16 12  1  0  0  0  0
 17 11  1  0  0  0  0
 20 13  1  0  0  0  0
 22 25  1  0  0  0  0
 22 23  1  0  0  0  0
 24 22  1  0  0  0  0
 26 22  1  0  0  0  0
M  RAD  1   4   2
M  END
$$$$
