2sa_1a_3dma_H.log
 OpenBabel02281910163D
Gaussian opt/gaussian/g09/g09 # opt=maxcycle=10000 freq wb97xd/6-31++g(d,p) geom
 49 43  0  0  0  0  0  0  0  0999 V2000
   -2.4185    0.5131   -0.2521 S   0  0  0  0  0  0  0  0  0  0  0  0
   -1.7281    1.2230   -1.3525 O   0  0  0  0  0  0  0  0  0  0  0  0
   -0.3641   -1.6854   -2.2253 N   0  0  0  0  0  0  0  0  0  0  0  0
    0.4418   -1.0834   -1.9570 H   0  0  0  0  0  0  0  0  0  0  0  0
   -1.0576   -1.5381   -1.4674 H   0  0  0  0  0  0  0  0  0  0  0  0
    0.0780   -3.0996   -2.2325 C   0  0  0  0  0  0  0  0  0  0  0  0
   -0.9487   -1.2138   -3.5019 C   0  0  0  0  0  0  0  0  0  0  0  0
   -0.1965   -1.2838   -4.2885 H   0  0  0  0  0  0  0  0  0  0  0  0
   -1.2697   -0.1809   -3.3681 H   0  0  0  0  0  0  0  0  0  0  0  0
   -1.8071   -1.8381   -3.7530 H   0  0  0  0  0  0  0  0  0  0  0  0
    0.8255   -3.2338   -3.0152 H   0  0  0  0  0  0  0  0  0  0  0  0
    0.5112   -3.3220   -1.2579 H   0  0  0  0  0  0  0  0  0  0  0  0
   -0.7811   -3.7430   -2.4264 H   0  0  0  0  0  0  0  0  0  0  0  0
   -2.0987    1.1018    1.0673 O   0  0  0  0  0  0  0  0  0  0  0  0
   -2.2645   -0.9475   -0.2978 O   0  0  0  0  0  0  0  0  0  0  0  0
    5.3065    0.2968    0.0167 N   0  0  0  0  0  0  0  0  0  0  0  0
    5.3709    1.1225    0.6048 H   0  0  0  0  0  0  0  0  0  0  0  0
    3.9923   -0.5607    0.3078 H   0  0  0  0  0  0  0  0  0  0  0  0
   -1.9603   -2.0166    2.8104 C   0  0  0  0  0  0  0  0  0  0  0  0
   -2.5063   -2.1886    1.8831 H   0  0  0  0  0  0  0  0  0  0  0  0
   -2.6391   -1.6581    3.5852 H   0  0  0  0  0  0  0  0  0  0  0  0
   -1.4727   -2.9346    3.1404 H   0  0  0  0  0  0  0  0  0  0  0  0
   -0.9277   -0.9867    2.5512 N   0  0  0  0  0  0  0  0  0  0  0  0
   -0.1129   -0.6134    3.7302 C   0  0  0  0  0  0  0  0  0  0  0  0
   -1.3828   -0.1454    2.1519 H   0  0  0  0  0  0  0  0  0  0  0  0
   -0.2870   -1.3134    1.7941 H   0  0  0  0  0  0  0  0  0  0  0  0
    0.6363    0.1105    3.4094 H   0  0  0  0  0  0  0  0  0  0  0  0
   -0.7606   -0.1867    4.4970 H   0  0  0  0  0  0  0  0  0  0  0  0
    0.3806   -1.5061    4.1163 H   0  0  0  0  0  0  0  0  0  0  0  0
    1.8032   -0.5648    0.2450 S   0  0  0  0  0  0  0  0  0  0  0  0
    1.6418    0.6162    1.1366 O   0  0  0  0  0  0  0  0  0  0  0  0
    1.7345   -0.1597   -1.1854 O   0  0  0  0  0  0  0  0  0  0  0  0
    0.8409   -1.6450    0.5564 O   0  0  0  0  0  0  0  0  0  0  0  0
    3.2071   -1.1979    0.5187 O   0  0  0  0  0  0  0  0  0  0  0  0
    0.8914    1.9200    0.3039 H   0  0  0  0  0  0  0  0  0  0  0  0
   -3.9983    0.7080   -0.4883 O   0  0  0  0  0  0  0  0  0  0  0  0
   -4.2240    1.6486   -0.4584 H   0  0  0  0  0  0  0  0  0  0  0  0
    5.3620    0.5986   -0.9517 H   0  0  0  0  0  0  0  0  0  0  0  0
    6.1265   -0.2738    0.2045 H   0  0  0  0  0  0  0  0  0  0  0  0
   -0.1321    3.7153    0.5474 C   0  0  0  0  0  0  0  0  0  0  0  0
    0.6692    4.1827    1.1211 H   0  0  0  0  0  0  0  0  0  0  0  0
   -0.8684    3.2670    1.2140 H   0  0  0  0  0  0  0  0  0  0  0  0
   -0.6118    4.4590   -0.0905 H   0  0  0  0  0  0  0  0  0  0  0  0
    0.4371    2.6423   -0.2995 N   0  0  0  0  0  0  0  0  0  0  0  0
    1.4170    3.1059   -1.3071 C   0  0  0  0  0  0  0  0  0  0  0  0
   -0.3405    2.1417   -0.7744 H   0  0  0  0  0  0  0  0  0  0  0  0
    2.2290    3.6285   -0.7993 H   0  0  0  0  0  0  0  0  0  0  0  0
    1.8040    2.2296   -1.8270 H   0  0  0  0  0  0  0  0  0  0  0  0
    0.9241    3.7827   -2.0061 H   0  0  0  0  0  0  0  0  0  0  0  0
  1 14  1  0  0  0  0
  2  1  2  0  0  0  0
  3  4  1  0  0  0  0
  3  5  1  0  0  0  0
  6  3  1  0  0  0  0
  6 12  1  0  0  0  0
  7  9  1  0  0  0  0
  7  3  1  0  0  0  0
  8  7  1  0  0  0  0
 10  7  1  0  0  0  0
 11  6  1  0  0  0  0
 13  6  1  0  0  0  0
 15  1  2  0  0  0  0
 16 39  1  0  0  0  0
 16 17  1  0  0  0  0
 18 34  1  0  0  0  0
 19 22  1  0  0  0  0
 19 21  1  0  0  0  0
 20 19  1  0  0  0  0
 23 19  1  0  0  0  0
 23 24  1  0  0  0  0
 24 29  1  0  0  0  0
 24 28  1  0  0  0  0
 25 23  1  0  0  0  0
 26 23  1  0  0  0  0
 27 24  1  0  0  0  0
 30 34  1  0  0  0  0
 30 33  2  0  0  0  0
 30 31  1  0  0  0  0
 32 30  2  0  0  0  0
 36 37  1  0  0  0  0
 36  1  1  0  0  0  0
 38 16  1  0  0  0  0
 40 41  1  0  0  0  0
 40 42  1  0  0  0  0
 43 40  1  0  0  0  0
 44 35  1  0  0  0  0
 44 40  1  0  0  0  0
 45 47  1  0  0  0  0
 45 44  1  0  0  0  0
 46 44  1  0  0  0  0
 48 45  1  0  0  0  0
 49 45  1  0  0  0  0
M  RAD  2  14   2  31   2
M  END
$$$$
