2sa_1a_2dma_H.log
 OpenBabel02281910163D
Gaussian users/kemi/kmacke/programs/G09D/g09/g09 # opt freq 6-31++g(d,p) wb97xd
 39 34  0  0  0  0  0  0  0  0999 V2000
    1.9302   -0.8668    0.3864 S   0  0  0  0  0  0  0  0  0  0  0  0
    1.7988   -0.4761   -1.0332 O   0  0  0  0  0  0  0  0  0  0  0  0
    1.0575    2.2360   -1.0778 N   0  0  0  0  0  0  0  0  0  0  0  0
    0.3571    2.1911   -0.3115 H   0  0  0  0  0  0  0  0  0  0  0  0
    1.3610    1.2506   -1.1970 H   0  0  0  0  0  0  0  0  0  0  0  0
    2.2174    3.0516   -0.6469 C   0  0  0  0  0  0  0  0  0  0  0  0
    0.3896    2.7116   -2.3130 C   0  0  0  0  0  0  0  0  0  0  0  0
    0.0378    3.7319   -2.1569 H   0  0  0  0  0  0  0  0  0  0  0  0
   -0.4570    2.0561   -2.5170 H   0  0  0  0  0  0  0  0  0  0  0  0
    1.1028    2.6867   -3.1376 H   0  0  0  0  0  0  0  0  0  0  0  0
    1.8835    4.0699   -0.4457 H   0  0  0  0  0  0  0  0  0  0  0  0
    2.6316    2.6023    0.2554 H   0  0  0  0  0  0  0  0  0  0  0  0
    2.9649    3.0577   -1.4410 H   0  0  0  0  0  0  0  0  0  0  0  0
    0.8999   -1.8088    0.8512 O   0  0  0  0  0  0  0  0  0  0  0  0
    2.0665    0.3111    1.2748 O   0  0  0  0  0  0  0  0  0  0  0  0
   -0.0001    0.0002    3.0976 N   0  0  0  0  0  0  0  0  0  0  0  0
    0.2256   -0.8049    3.6785 H   0  0  0  0  0  0  0  0  0  0  0  0
    0.8155    0.2185    2.4794 H   0  0  0  0  0  0  0  0  0  0  0  0
   -2.2172   -3.0519   -0.6465 C   0  0  0  0  0  0  0  0  0  0  0  0
   -2.6311   -2.6027    0.2560 H   0  0  0  0  0  0  0  0  0  0  0  0
   -1.8832   -4.0702   -0.4455 H   0  0  0  0  0  0  0  0  0  0  0  0
   -2.9649   -3.0579   -1.4403 H   0  0  0  0  0  0  0  0  0  0  0  0
   -1.0575   -2.2362   -1.0778 N   0  0  0  0  0  0  0  0  0  0  0  0
   -0.3900   -2.7116   -2.3133 C   0  0  0  0  0  0  0  0  0  0  0  0
   -0.3568   -2.1914   -0.3116 H   0  0  0  0  0  0  0  0  0  0  0  0
   -1.3611   -1.2508   -1.1967 H   0  0  0  0  0  0  0  0  0  0  0  0
    0.4564   -2.0560   -2.5175 H   0  0  0  0  0  0  0  0  0  0  0  0
   -0.0381   -3.7318   -2.1573 H   0  0  0  0  0  0  0  0  0  0  0  0
   -1.1035   -2.6866   -3.1375 H   0  0  0  0  0  0  0  0  0  0  0  0
   -1.9302    0.8668    0.3863 S   0  0  0  0  0  0  0  0  0  0  0  0
   -3.2799    1.7275    0.5152 O   0  0  0  0  0  0  0  0  0  0  0  0
   -2.0667   -0.3110    1.2748 O   0  0  0  0  0  0  0  0  0  0  0  0
   -0.8998    1.8087    0.8512 O   0  0  0  0  0  0  0  0  0  0  0  0
   -1.7986    0.4760   -1.0332 O   0  0  0  0  0  0  0  0  0  0  0  0
   -4.0390    1.2115    0.2077 H   0  0  0  0  0  0  0  0  0  0  0  0
    3.2800   -1.7273    0.5154 O   0  0  0  0  0  0  0  0  0  0  0  0
    4.0391   -1.2113    0.2078 H   0  0  0  0  0  0  0  0  0  0  0  0
   -0.8157   -0.2185    2.4796 H   0  0  0  0  0  0  0  0  0  0  0  0
   -0.2257    0.8055    3.6781 H   0  0  0  0  0  0  0  0  0  0  0  0
  1 36  1  0  0  0  0
  1 14  2  0  0  0  0
  1 15  1  0  0  0  0
  2  1  2  0  0  0  0
  3  6  1  0  0  0  0
  3  4  1  0  0  0  0
  5  3  1  0  0  0  0
  6 11  1  0  0  0  0
  6 12  1  0  0  0  0
  7  8  1  0  0  0  0
  7  3  1  0  0  0  0
  9  7  1  0  0  0  0
 10  7  1  0  0  0  0
 13  6  1  0  0  0  0
 16 39  1  0  0  0  0
 16 17  1  0  0  0  0
 18 16  1  0  0  0  0
 19 21  1  0  0  0  0
 19 20  1  0  0  0  0
 22 19  1  0  0  0  0
 23 19  1  0  0  0  0
 23 25  1  0  0  0  0
 24 28  1  0  0  0  0
 24 23  1  0  0  0  0
 26 23  1  0  0  0  0
 27 24  1  0  0  0  0
 29 24  1  0  0  0  0
 30 31  1  0  0  0  0
 30 33  2  0  0  0  0
 30 32  1  0  0  0  0
 34 30  2  0  0  0  0
 35 31  1  0  0  0  0
 37 36  1  0  0  0  0
 38 16  1  0  0  0  0
M  RAD  2  15   2  32   2
M  END
$$$$
