25
1fa1tma1ma-2
H        3.31484800      -1.88242700       0.04266800
H        1.78988600       0.39867000      -0.87437600
C        2.50914700      -1.13337500       0.08711800
O        2.55207900      -0.31296600      -0.93275400
O        1.69569800      -1.11162700       0.99403900
N       -1.75417700      -0.15941000      -0.09958000
C       -3.08530000       0.28835600      -0.47483800
H       -3.28839300       1.26368500      -0.02256600
H       -3.15191500       0.39282900      -1.56207800
H       -3.87191600      -0.41581800      -0.14648200
C       -1.42492800      -1.43159400      -0.72924300
H       -1.47574200      -1.32931700      -1.81759900
H       -0.40849300      -1.71981900      -0.44994700
H       -2.11586000      -2.23773800      -0.42247200
C       -1.61120900      -0.24874800       1.34939500
H       -0.58980600      -0.55246700       1.59256500
H       -1.80494200       0.73024400       1.79910400
H       -2.31584700      -0.97772200       1.78962100
N        0.67345200       1.49484900      -0.70498500
H        0.60025200       2.14526500      -1.48131100
C        0.94862800       2.20863300       0.54806100
H        0.15761800       2.91529800       0.82700800
H        1.05867300       1.46863500       1.34451200
H        1.89149800       2.75523200       0.46205100
H       -0.22503900       0.99449100      -0.62198800
25
1fa1tma1ma-1
H        3.53424000      -1.63188500      -0.50237100
H        1.91319600       0.68915100       0.07940100
C        2.63761700      -1.10338300      -0.14238200
O        2.75487100       0.19468000      -0.28206100
O        1.67781400      -1.69387800       0.31824300
N       -1.65988700      -0.29765100      -0.01253300
C       -2.93998300       0.38109800      -0.12740700
H       -3.20826100       0.83343000       0.83218900
H       -2.87220700       1.17675200      -0.87572200
H       -3.75354600      -0.30546800      -0.42614900
C       -1.23139000      -0.84631300      -1.29263000
H       -1.14431300      -0.04130600      -2.02948400
H       -0.25470700      -1.32036300      -1.17049100
H       -1.94452800      -1.59577000      -1.68192400
C       -1.69297000      -1.33375800       1.01227600
H       -0.70199300      -1.78578900       1.09997100
H       -1.96303100      -0.88842900       1.97506200
H       -2.42936800      -2.12411900       0.77854000
N        0.65177900       1.48475200       0.61930400
H       -0.14975500       0.84297400       0.50821000
C        0.37233300       2.73518200      -0.09194500
H       -0.53213800       3.24387100       0.26467700
H        1.21833900       3.42052400       0.00497800
H        0.24317500       2.51506300      -1.15482500
H        0.76652900       1.65829800       1.61361500
25
1fa1tma1ma-3
C        1.18850100       2.14940700      -0.22299200
O        2.20629200       1.77262000       0.32370600
O        0.19890700       1.38076500      -0.62312600
H        0.99449400       3.21161000      -0.43991600
N        0.67999900      -1.09267900      -0.04559600
C       -0.37429100      -1.96306500      -0.56738800
H       -1.32548800      -1.66367900      -0.12057800
H       -0.43546000      -1.84951700      -1.65360700
H       -0.17514200      -3.02079800      -0.33411000
C        1.98905900      -1.42655400      -0.60834200
H        1.94123800      -1.36071300      -1.69882500
H        2.72511500      -0.70489900      -0.24665800
H        2.29991500      -2.44474100      -0.32787200
C        0.70978200      -1.11943500       1.41916200
H        1.45350700      -0.39977400       1.77048800
H       -0.27662700      -0.83384000       1.79368800
H        0.96575100      -2.12113500       1.79735000
H        0.40437000       0.36178400      -0.40278700
N       -2.45883700       0.43897400       0.68623500
H       -2.88577500       0.82144100       1.52270100
C       -3.44989500       0.29138500      -0.37699800
H       -3.95734800       1.22319300      -0.66628700
H       -2.95961900      -0.10985500      -1.26916100
H       -4.21200300      -0.43057900      -0.06900000
H       -1.72557700       1.07992000       0.39480400
