36
1msa1nta1dma1eda-111
S       -1.89242700       1.55178100      -0.06421500
O       -1.00776500       2.20159800      -1.07228100
O       -1.13382700       1.04250200       1.10119000
O       -2.78509100       0.51626700      -0.65737300
H       -2.21923700      -1.06616000      -0.33674600
C       -2.97913600       2.83929200       0.52219600
H       -3.53566100       3.22814100      -0.33054300
H       -3.65561400       2.40620200       1.25919800
H       -2.36811000       3.62185900       0.97240400
N        1.63765500      -2.25211800      -0.09671300
O        2.82499300      -1.97444600       0.07815200
O        1.11047500      -3.28407500       0.33122600
O        0.89843300      -1.42196100      -0.75599100
H        1.43079200       0.19110700      -0.83221900
N       -1.69473200      -1.93179400      -0.07252800
C       -2.15196000      -3.09607800      -0.85384100
C       -1.77383100      -2.11371700       1.39302800
H       -0.69774100      -1.73613500      -0.33564500
H       -3.19739900      -3.30522300      -0.62033800
H       -2.05005700      -2.86860600      -1.91509800
H       -1.52497500      -3.95252100      -0.60174500
H       -2.80724900      -2.33202500       1.66937200
H       -1.11597400      -2.93463900       1.68009900
H       -1.45364100      -1.18073400       1.85766900
H        1.82274500       2.66797800       0.73470800
H        1.38125300       1.05996700       1.32220000
H        3.83642400       1.54615300       1.71465300
H        3.59901200       0.17390700       0.62005900
H        4.45445000       2.85983800      -0.15933100
H        5.05444200       1.40525900      -0.61210400
H        0.59904800       1.65197000      -0.96591900
H        2.24887700       1.54972400      -1.42060300
C        1.99910200       1.59686400       0.60196800
C        3.48059700       1.25672600       0.71762300
N        1.53531800       1.23084000      -0.75770000
N        4.20334000       1.90276300      -0.38132400
36
1msa1nta1dma1eda-222
S        0.07771000      -2.27762700      -0.07661400
O       -1.27459300      -2.31680400      -0.70232300
O        0.10486700      -1.45933300       1.15676400
O        1.14980500      -1.89232200      -1.03764500
H        1.59351600      -0.24166800      -1.00288700
C        0.43798400      -3.96233400       0.38671400
H       -0.32648500      -4.29290800       1.08999900
H        0.42231300      -4.57297400      -0.51614600
H        1.42385900      -3.98541400       0.85125500
N       -0.87287100       2.80610100      -0.07869300
O       -1.97329300       3.03749100       0.43092300
O        0.12942300       3.49418300       0.12048900
O       -0.76691800       1.77525200      -0.85496200
H       -1.93805100       0.68585300      -0.36042600
N       -2.64459100      -0.03005700      -0.05880000
C       -3.89887800       0.23320800      -0.78860900
C       -2.77551100       0.02230100       1.41418000
H       -2.23152700      -0.95162200      -0.33284900
H       -4.23419800       1.24473800      -0.55491500
H       -3.70749900       0.14798100      -1.85841100
H       -4.65431200      -0.49577400      -0.49049800
H       -3.05536200       1.03545100       1.70450800
H       -3.53457300      -0.69565600       1.73064700
H       -1.81025100      -0.25057100       1.84203800
H        2.10499900       1.99192600       0.85841300
H        1.58907800       0.32412000       1.23248800
H        4.03948400       0.63883100       1.70775100
H        3.75326900      -0.56398700       0.44394700
H        4.66318100       2.18564000      -0.01285200
H        5.34594100       0.78827700      -0.52303400
H        0.85173900       1.27215600      -0.94318200
H        2.48801300       1.13754500      -1.42343300
C        2.22980400       0.93813100       0.59647100
C        3.68665300       0.50372400       0.67688400
N        1.76082700       0.77244100      -0.80202100
N        4.46218600       1.24039500      -0.32282700
36
1msa1nta1dma1eda-289
S        1.37807600      -1.82369400      -0.32021500
O        0.24372500      -1.99560200      -1.27077300
O        0.93561400      -1.53197700       1.05960500
O        2.39455800      -0.84730300      -0.81039200
H        2.28624600       0.62750700      -0.03640400
C        2.21217300      -3.40112900      -0.29623200
H        1.50166100      -4.15559200       0.04192900
H        2.55573900      -3.62015600      -1.30719400
H        3.05491700      -3.33051500       0.39166900
N       -0.89891200       2.37264800      -0.60218000
O       -0.56863700       1.65829400       0.40095000
O       -0.20276800       3.33209000      -0.93253400
O       -1.93158800       2.05070300      -1.23400900
H       -2.01522500       0.31639000      -0.87751100
N        2.13559600       1.49349200       0.53895300
C        2.83971400       2.64115800      -0.06499700
C        2.51864200       1.19187600       1.93308200
H        1.09785300       1.65833700       0.50901500
H        3.91177800       2.43669000      -0.08538400
H        2.46078000       2.78803700      -1.07542700
H        2.63649000       3.53869200       0.52062800
H        3.59524000       1.01780900       1.98229600
H        2.24805400       2.03423900       2.57232000
H        1.98398200       0.28991300       2.23426900
H       -2.24343400      -1.99269800       0.96875900
H       -1.45905900      -0.44058400       1.30715100
H       -3.79293500      -0.46537700       2.24086300
H       -3.60964900       0.75012000       0.97084700
H       -4.99628800      -1.81203900       0.70384300
H       -5.48742500      -0.32055000       0.24495200
H       -1.18243900      -1.17335900      -0.97956900
H       -2.87824200      -1.07844600      -1.17188000
C       -2.28547000      -0.91632900       0.78155100
C       -3.63493400      -0.32704600       1.16336900
N       -2.06950600      -0.70543000      -0.66967100
N       -4.67935500      -0.92501700       0.32787600
