19
1nta1am1dma-5
N       -1.39930600      -0.33318800      -0.01829600
C       -2.38773300      -1.00261700      -0.87827600
C       -1.60776400      -0.53342400       1.42781800
H       -0.40084900      -0.67415000      -0.25700800
H       -3.39128300      -0.63290600      -0.65604300
H       -2.14526600      -0.79847900      -1.92176400
H       -2.34710900      -2.07975700      -0.70636000
H       -2.57312700      -0.11983100       1.72828800
H       -1.57632200      -1.60150100       1.65096000
H       -0.79405500      -0.03029000       1.95139700
H       -1.36945400       0.69800800      -0.21469200
N       -0.81852700       2.41760300      -0.41058800
H       -0.74673300       2.81171400      -1.34306000
H        0.12343700       2.15818100      -0.10527600
H       -1.15342600       3.15280100       0.20346900
N        1.82769000      -0.25911800      -0.01693800
O        1.30364100       0.66701400       0.65805500
O        3.03542000      -0.35717400      -0.15774500
O        1.04571000      -1.11541800      -0.56361200
19
1nta1am1dma-8
N       -1.51385700       2.30661800       0.28212500
H       -0.51749200       2.13435000       0.14608800
H       -1.61664300       2.79495100       1.16628900
H       -1.80284100       2.95714100      -0.44188200
N       -1.10247600      -0.94777600      -0.16423300
C       -2.24200100      -0.72426400      -1.07348400
C       -1.45923000      -0.93435700       1.27004400
H       -0.60817000      -1.81457300      -0.37898300
H       -2.65816600       0.25688600      -0.83972000
H       -1.87926200      -0.73558600      -2.10194400
H       -2.99369700      -1.50465500      -0.93476600
H       -1.88897100       0.04325000       1.49065300
H       -2.17888600      -1.72749700       1.48440200
H       -0.54482100      -1.08657900       1.84400200
N        1.88771500      -0.02943300      -0.09319000
O        1.66861800      -1.22952300       0.18228300
O        2.99325500       0.47842300      -0.02689600
O        0.87801100       0.69183500      -0.46311100
H       -0.32241700      -0.19770200      -0.32462300
19
1nta1am1dma-7
N       -0.11137000       2.15944200      -0.04433600
H       -0.32510400       2.89891800       0.61766200
H       -0.90931900       1.49905700      -0.09428700
H        0.00849400       2.58119900      -0.96037900
N       -1.85505000      -0.20210800      -0.11066200
C       -3.21953400      -0.41477500      -0.57465400
C       -1.61455600      -0.75978500       1.21583200
H       -1.19593800      -0.62096300      -0.76195100
H       -3.91275600       0.12958100       0.07506400
H       -3.33019900      -0.02229700      -1.58877900
H       -3.51746900      -1.47565900      -0.57505000
H       -2.23903900      -0.23760000       1.94856000
H       -1.83871100      -1.83581700       1.28248400
H       -0.56759900      -0.60781300       1.49235300
N        1.92547000      -0.37863800      -0.17923700
O        1.07983400      -0.46923700      -1.06717300
O        2.80415100      -1.17574800       0.04852300
O        1.87523500       0.69165400       0.61305400
H        1.04507300       1.31453500       0.30167000
