37
2msa1fa1dma1am-2
S       -2.72402000       0.11008900      -0.22138200
O       -2.57797100       1.14198900       0.83334300
O       -2.44884900      -1.27235300       0.25467800
O       -1.93288900       0.43073300      -1.44406900
C       -4.43940000       0.12656300      -0.70030100
H       -4.67289300       1.11799100      -1.08840900
H       -4.58679200      -0.63472900      -1.46633300
H       -5.03657600      -0.09469900       0.18430100
S        2.64107900       0.15546100      -0.41655200
O        3.05485500       1.55837200      -0.26590100
O        2.47122800      -0.29763400      -1.82447500
O        1.40877500      -0.15852000       0.38436900
C        3.92578900      -0.86881900       0.27757100
H        4.84187000      -0.68939500      -0.28579700
H        4.05906700      -0.59166200       1.32353200
H        3.61535500      -1.91033100       0.18760700
H        1.05615000      -2.99457800       2.29222100
H       -1.30211100      -1.70372400       1.33925200
C        0.31724000      -2.71976700       1.52937200
O       -0.62587200      -1.96561200       2.02757200
O        0.40414800      -3.11302000       0.37723700
N        0.00514500       2.12286600       0.73816600
C        0.63411800       2.78568900       1.89704400
C        0.06819700       2.90756600      -0.51643600
H        0.50588000       1.21007000       0.58593600
H        0.14163300       3.74153700       2.08392000
H        0.53154600       2.13812300       2.76808200
H        1.69101400       2.93736400       1.67173100
H       -0.42105200       3.87081500      -0.36007800
H        1.11658000       3.04153000      -0.78627000
H       -0.45871600       2.34409800      -1.28725400
H       -0.98466300       1.86630500       0.92613500
N        0.01027700      -1.52355600      -1.88903200
H        0.95244600      -1.07281700      -1.97276800
H        0.01921700      -2.12184100      -1.03910400
H       -0.71746600      -0.78784600      -1.77211800
H       -0.19443900      -2.08919500      -2.70709200
37
2msa1fa1dma1am-3
S       -2.91130300      -1.09944300       0.08774300
O       -3.75808600       0.03321300       0.49516000
O       -2.39533000      -1.94457600       1.18549600
O       -1.77807300      -0.62843400      -0.80217800
C       -3.90772000      -2.15700100      -0.94772800
H       -4.73942000      -2.52192200      -0.34445000
H       -4.27228300      -1.57000000      -1.79068200
H       -3.29046800      -2.98700500      -1.29185700
S        2.02064600       1.37721900       0.03990500
O        1.27584400       2.46400700      -0.63626200
O        2.29553800       0.22446600      -0.86476900
O        1.36558800       0.93061800       1.30071100
C        3.60148800       2.06134800       0.49559900
H        4.09452000       2.40563500      -0.41364300
H        3.42662000       2.89204100       1.17932200
H        4.18660400       1.27999100       0.98167100
H        4.66796800      -3.45721700      -0.28173700
H        3.41616700      -0.92393200      -0.75221400
C        3.82718800      -2.75217200      -0.26930200
O        4.17547700      -1.58090200      -0.73603500
O        2.72537000      -3.07430900       0.14167300
N       -1.44483600       2.05437000      -0.30446700
C       -1.63071600       2.31771100       1.14305300
C       -2.44056000       2.72258900      -1.16647800
H       -0.47141900       2.31501000      -0.56358700
H       -2.58951900       1.89787600       1.44821100
H       -0.80998500       1.83742100       1.67697100
H       -1.59754500       3.39553700       1.31167200
H       -3.42902400       2.34743800      -0.89735500
H       -2.38485700       3.80191300      -1.01613600
H       -2.22379600       2.48141300      -2.20728300
H       -1.52497000       1.02333900      -0.47630100
N        0.36629700      -1.60875500       0.67064800
H        1.16905400      -2.22269200       0.45769900
H       -0.13802900      -1.32481700      -0.18443200
H       -0.35715900      -2.04559900       1.25239700
H        0.71912200      -0.73566700       1.10486600
37
2msa1fa1dma1am-1
S        1.89177500       1.30241700      -0.50661000
O        0.93046500       2.41268200      -0.29590900
O        1.62870600       0.51813500      -1.73569500
O        1.98955400       0.42541900       0.69926700
H        3.13838000      -0.66256500       0.97931600
C        3.48679200       2.06917700      -0.71632600
H        3.43825600       2.71739000      -1.59137000
H        3.70736300       2.64559000       0.18230200
H        4.22765000       1.28215700      -0.86125200
S       -2.75364700      -1.16801900      -0.24089500
O       -2.34838800      -1.90698500      -1.44873200
O       -3.30462100       0.19336200      -0.50367300
O       -1.65877700      -1.10069100       0.77876000
H       -0.70019400       2.07701000       0.06726700
C       -4.08512500      -2.08561700       0.51298800
H       -4.38807100      -1.57135200       1.42500100
H       -4.90892000      -2.12573000      -0.20001600
H       -3.72226500      -3.08894700       0.73669200
H        4.66272400      -3.08765700       1.14775700
H        1.28772500      -2.37183600      -0.43557100
C        3.78764900      -2.48964400       0.86174200
O        2.83356500      -2.98306000       0.28551400
O        3.92825000      -1.23856700       1.21693300
N       -1.65452500       2.11268800       0.48738500
C       -2.25477000       3.41885600       0.15279700
C       -1.50611900       1.86591100       1.93826200
H       -2.24253200       1.34876100       0.06867700
H       -1.61420200       4.21610000       0.53299200
H       -2.33740700       3.49959500      -0.93088700
H       -3.24690000       3.48576800       0.60180700
H       -0.82781500       2.61082600       2.35685300
H       -2.48625000       1.93183000       2.41365900
H       -1.10056100       0.86313300       2.06706400
N        0.47863700      -1.85441800      -0.81314800
H        0.83400800      -1.00894200      -1.30098200
H       -0.15434700      -1.54810800      -0.04585800
H       -0.10605400      -2.40571900      -1.44153700
