33
2sa1nta1am1dma-1
N       -1.07078400      -1.47399800       1.78322100
H       -1.98186600      -1.51941400       1.31291800
H       -1.16077900      -1.77851900       2.74822700
H       -0.35715100      -2.04517900       1.27977000
H       -0.74913400      -0.47422300       1.72908000
N        2.69363300       1.64372700       0.12781300
C        2.85015000       2.58244100       1.25833800
C        3.74816300       1.72269800      -0.90437400
H        2.66293800       0.66868900       0.48645300
H        2.84596600       3.60413600       0.87618400
H        2.00637200       2.43745200       1.93295500
H        3.79021400       2.37708800       1.77249600
H        3.74445900       2.71997400      -1.34630000
H        4.71656600       1.51648400      -0.44666600
H        3.53003500       0.97482000      -1.66665600
H        1.76567600       1.82758100      -0.31530500
N       -4.32380200      -0.47826500      -0.16385700
O       -3.61031000      -0.68314300       0.81707100
O       -5.15845000      -1.22214900      -0.60547400
O       -4.18055200       0.68802400      -0.79528600
H       -3.37383200       1.15881100      -0.40144100
S        2.01321600      -1.78141300      -0.15770600
O        2.81447800      -1.05390000       0.83412800
O        0.97427300      -2.66859600       0.40009000
O        1.49562700      -0.90094700      -1.23226900
O        3.09433700      -2.76014000      -0.85572900
H        2.62412600      -3.36998800      -1.44122900
S       -0.74827200       1.43824800      -0.09032300
O        0.20230500       2.27261100      -0.84502800
O       -0.15690900       1.01145500       1.20946000
O       -2.10415200       1.98957700       0.02585100
O       -0.98133400       0.08163500      -0.92190500
H       -0.10041700      -0.31356400      -1.15331700
33
2sa1nta1am1dma-2
N       -0.98579800      -2.12504100      -0.53863900
H       -0.00000400      -2.45757900      -0.45699500
H       -1.50573200      -2.60420700      -1.26871000
H       -1.47062000      -2.24333800       0.35034700
H       -0.96533400      -1.09032200      -0.71882200
N        2.12287300       1.97217000      -0.68683100
C        3.39730300       2.48484600      -0.14251000
C        1.60721300       2.69680600      -1.86737700
H        2.25515000       0.97023000      -0.93210900
H        3.26253600       3.52032800       0.17284700
H        3.67389200       1.86685100       0.71180400
H        4.16880000       2.42182200      -0.91099600
H        1.44761600       3.74358500      -1.60531000
H        2.32928800       2.61908600      -2.68151000
H        0.66013400       2.23862500      -2.15186800
H        1.39395500       2.00323200       0.06078000
N       -4.51013500      -0.51890200      -0.48251600
O       -3.54222400      -1.25168200      -0.30215900
O       -5.52523600      -0.80431100      -1.06229200
O       -4.44424400       0.72389000       0.00535100
H       -3.54105300       0.84149600       0.45028600
S        2.54142700      -1.45417600      -0.01660900
O        2.17051900      -0.60672300       1.14021800
O        1.67401500      -2.64103200      -0.15477800
O        2.73941400      -0.67904700      -1.24767900
O        4.01981200      -2.02919900       0.29496400
H        3.95635200      -2.66751500       1.01893700
S       -0.85367600       1.02982100       0.82656200
O       -0.69610900       0.57970400      -0.58608300
O        0.08338900       2.11951000       1.14619100
O       -2.24501700       1.28236900       1.21602000
O       -0.43735100      -0.24030800       1.72351700
H        0.53956700      -0.38548400       1.63113900
33
2sa1nta1am1dma-5
N       -0.86706400      -1.91026500       1.09886900
H        0.09145400      -2.24132400       1.31989500
H       -1.11962600      -2.23526000       0.16642100
H       -1.57534600      -2.20982100       1.76350100
N        2.51960000       1.97468800       0.44353500
C        3.61667400       2.79146800      -0.11376700
C        2.31287800       2.13326200       1.89950600
H        1.62658100       2.19593300      -0.05853600
H        4.55345800       2.51875200       0.37428600
H        3.68945500       2.59574800      -1.18333500
H        3.40185800       3.84777500       0.05384300
H        3.20768900       1.80014200       2.42730200
H        2.11472200       3.18348200       2.11899800
H        1.45186300       1.52846700       2.18223000
H        2.70894700       0.97109500       0.23044600
N       -4.42926300      -0.52586500       0.23882800
O       -3.33340600      -0.95487100       0.58855700
O       -5.48687200      -1.08951500       0.34984100
O       -4.46563600       0.68557600      -0.32234500
H       -3.51883100       1.04899500      -0.34546200
S       -0.80767200       1.36588000      -0.46693000
O       -2.18619800       1.86511800      -0.46261000
O        0.18192500       2.37274500      -0.89484500
O       -0.37739300       0.71899300       0.80571200
O       -0.83286100       0.19325600      -1.55727200
H       -0.82477500      -0.85870300       1.05511100
H       -0.02259900      -0.36760900      -1.47293400
S        2.24320000      -1.75854100      -0.19570900
O        3.13965200      -0.58760100      -0.25834700
O        1.87606700      -2.18396800       1.15979700
O        1.08343200      -1.64024100      -1.10917000
O        3.11342700      -3.00579000      -0.74542600
H        3.40939100      -2.80297800      -1.64373500
