1put.log
 OpenBabel02271919113D
Gaussian kemi/andersx/programs/g09/g09 # opt freq 6-31++g(d,p) geom=connectivity
 18 17  0  0  0  0  0  0  0  0999 V2000
    1.8319    0.6758    0.1728 C   0  0  0  0  0  0  0  0  0  0  0  0
    0.4065    0.5393   -0.3569 C   0  0  0  0  0  0  0  0  0  0  0  0
    2.3029    1.5567   -0.2929 H   0  0  0  0  0  0  0  0  0  0  0  0
    2.5929   -0.5582   -0.0324 N   0  0  0  0  0  0  0  0  0  0  0  0
    1.7967    0.8674    1.2523 H   0  0  0  0  0  0  0  0  0  0  0  0
   -0.1055    1.5028   -0.2677 H   0  0  0  0  0  0  0  0  0  0  0  0
   -0.4066   -0.5390    0.3575 C   0  0  0  0  0  0  0  0  0  0  0  0
    0.4439    0.3118   -1.4329 H   0  0  0  0  0  0  0  0  0  0  0  0
   -0.4443   -0.3113    1.4334 H   0  0  0  0  0  0  0  0  0  0  0  0
    0.1057   -1.5024    0.2686 H   0  0  0  0  0  0  0  0  0  0  0  0
   -1.8318   -0.6760   -0.1727 C   0  0  0  0  0  0  0  0  0  0  0  0
   -1.7961   -0.8681   -1.2520 H   0  0  0  0  0  0  0  0  0  0  0  0
   -2.5930    0.5581    0.0317 N   0  0  0  0  0  0  0  0  0  0  0  0
   -2.3028   -1.5567    0.2933 H   0  0  0  0  0  0  0  0  0  0  0  0
   -2.7331    0.7286    1.0228 H   0  0  0  0  0  0  0  0  0  0  0  0
   -3.5107    0.4970   -0.3948 H   0  0  0  0  0  0  0  0  0  0  0  0
    3.5107   -0.4977    0.3941 H   0  0  0  0  0  0  0  0  0  0  0  0
    2.7330   -0.7281   -1.0237 H   0  0  0  0  0  0  0  0  0  0  0  0
  1  5  1  0  0  0  0
  2  6  1  0  0  0  0
  2  1  1  0  0  0  0
  2  7  1  0  0  0  0
  3  1  1  0  0  0  0
  4  1  1  0  0  0  0
  4 17  1  0  0  0  0
  7  9  1  0  0  0  0
  8  2  1  0  0  0  0
 10  7  1  0  0  0  0
 11 13  1  0  0  0  0
 11 14  1  0  0  0  0
 11  7  1  0  0  0  0
 12 11  1  0  0  0  0
 13 15  1  0  0  0  0
 16 13  1  0  0  0  0
 18  4  1  0  0  0  0
M  END
$$$$
