1sa_3put.log
 OpenBabel02271919113D
Gaussian kemi/andersx/programs/g09/g09 # opt freq wb97xd/6-31++g(d,p) geom=conne
 61 57  0  0  0  0  0  0  0  0999 V2000
   -0.2087   -0.1658   -1.1745 S   0  0  0  0  0  0  0  0  0  0  0  0
   -0.6150   -1.5841   -1.4162 O   0  0  0  0  0  0  0  0  0  0  0  0
    0.2023   -0.0577    0.3078 O   0  0  0  0  0  0  0  0  0  0  0  0
    0.9612    0.2188   -2.0052 O   0  0  0  0  0  0  0  0  0  0  0  0
   -1.9891    1.4712    1.6171 H   0  0  0  0  0  0  0  0  0  0  0  0
   -1.3687    0.7692   -1.3795 O   0  0  0  0  0  0  0  0  0  0  0  0
   -3.7750   -1.7041   -0.4481 C   0  0  0  0  0  0  0  0  0  0  0  0
   -4.9869   -0.8393   -0.0745 C   0  0  0  0  0  0  0  0  0  0  0  0
   -3.2645   -1.2718   -1.3146 H   0  0  0  0  0  0  0  0  0  0  0  0
   -2.7763   -1.8029    0.6274 N   0  0  0  0  0  0  0  0  0  0  0  0
   -4.1320   -2.6974   -0.7518 H   0  0  0  0  0  0  0  0  0  0  0  0
   -5.3404   -1.1099    0.9311 H   0  0  0  0  0  0  0  0  0  0  0  0
   -4.7915    0.6839   -0.1708 C   0  0  0  0  0  0  0  0  0  0  0  0
   -5.7987   -1.1024   -0.7628 H   0  0  0  0  0  0  0  0  0  0  0  0
   -4.3102    0.9254   -1.1264 H   0  0  0  0  0  0  0  0  0  0  0  0
   -5.7785    1.1604   -0.1863 H   0  0  0  0  0  0  0  0  0  0  0  0
   -4.0078    1.3530    0.9563 C   0  0  0  0  0  0  0  0  0  0  0  0
   -4.4515    1.1190    1.9299 H   0  0  0  0  0  0  0  0  0  0  0  0
   -2.5959    0.9297    0.9737 N   0  0  0  0  0  0  0  0  0  0  0  0
   -4.0318    2.4387    0.8285 H   0  0  0  0  0  0  0  0  0  0  0  0
   -2.5352   -0.1060    1.1544 H   0  0  0  0  0  0  0  0  0  0  0  0
   -2.1466    1.0035    0.0131 H   0  0  0  0  0  0  0  0  0  0  0  0
    1.5707   -3.9198    0.0519 C   0  0  0  0  0  0  0  0  0  0  0  0
    1.6072   -3.1430    1.3740 C   0  0  0  0  0  0  0  0  0  0  0  0
    0.8954   -2.3094    1.3158 H   0  0  0  0  0  0  0  0  0  0  0  0
    3.0210   -2.6395    1.7414 C   0  0  0  0  0  0  0  0  0  0  0  0
    1.2415   -3.8099    2.1628 H   0  0  0  0  0  0  0  0  0  0  0  0
    3.2418   -2.8546    2.7922 H   0  0  0  0  0  0  0  0  0  0  0  0
    3.7622   -3.1931    1.1513 H   0  0  0  0  0  0  0  0  0  0  0  0
    3.2563   -1.1415    1.5329 C   0  0  0  0  0  0  0  0  0  0  0  0
    4.3200   -0.9092    1.6336 H   0  0  0  0  0  0  0  0  0  0  0  0
    2.7854   -0.6996    0.2046 N   0  0  0  0  0  0  0  0  0  0  0  0
    2.7135   -0.5587    2.2836 H   0  0  0  0  0  0  0  0  0  0  0  0
    2.7949   -1.4898   -0.4779 H   0  0  0  0  0  0  0  0  0  0  0  0
    3.2605    0.1444   -0.1895 H   0  0  0  0  0  0  0  0  0  0  0  0
   -1.8691   -2.0082    0.2007 H   0  0  0  0  0  0  0  0  0  0  0  0
   -3.0094   -2.5451    1.2782 H   0  0  0  0  0  0  0  0  0  0  0  0
   -0.1762    3.4668    0.8619 C   0  0  0  0  0  0  0  0  0  0  0  0
    0.9455    3.3318   -0.1732 C   0  0  0  0  0  0  0  0  0  0  0  0
   -0.0737    4.4055    1.4205 H   0  0  0  0  0  0  0  0  0  0  0  0
   -0.2690    2.3605    1.8266 N   0  0  0  0  0  0  0  0  0  0  0  0
   -1.1261    3.5309    0.3159 H   0  0  0  0  0  0  0  0  0  0  0  0
    0.9094    4.2056   -0.8377 H   0  0  0  0  0  0  0  0  0  0  0  0
    2.3469    3.2182    0.4287 C   0  0  0  0  0  0  0  0  0  0  0  0
    0.7260    2.4603   -0.7979 H   0  0  0  0  0  0  0  0  0  0  0  0
    2.3900    2.3713    1.1267 H   0  0  0  0  0  0  0  0  0  0  0  0
    2.5677    4.1224    1.0127 H   0  0  0  0  0  0  0  0  0  0  0  0
    3.4451    3.0379   -0.6195 C   0  0  0  0  0  0  0  0  0  0  0  0
    3.3434    3.8292   -1.3792 H   0  0  0  0  0  0  0  0  0  0  0  0
    3.4154    1.6950   -1.2109 N   0  0  0  0  0  0  0  0  0  0  0  0
    4.4243    3.1724   -0.1458 H   0  0  0  0  0  0  0  0  0  0  0  0
    2.5065    1.4813   -1.6357 H   0  0  0  0  0  0  0  0  0  0  0  0
    4.1028    1.6244   -1.9546 H   0  0  0  0  0  0  0  0  0  0  0  0
    0.3333    2.5285    2.6242 H   0  0  0  0  0  0  0  0  0  0  0  0
    0.0483    1.4957    1.3714 H   0  0  0  0  0  0  0  0  0  0  0  0
    2.2852   -4.7501    0.1152 H   0  0  0  0  0  0  0  0  0  0  0  0
    1.9375   -3.0727   -1.0877 N   0  0  0  0  0  0  0  0  0  0  0  0
    0.5720   -4.3612   -0.0732 H   0  0  0  0  0  0  0  0  0  0  0  0
    2.2455   -3.6370   -1.8715 H   0  0  0  0  0  0  0  0  0  0  0  0
    1.1033   -2.5609   -1.4006 H   0  0  0  0  0  0  0  0  0  0  0  0
    1.7591   -0.4282    0.2614 H   0  0  0  0  0  0  0  0  0  0  0  0
  1  3  1  0  0  0  0
  2  1  2  0  0  0  0
  4  1  2  0  0  0  0
  6  1  1  0  0  0  0
  7  8  1  0  0  0  0
  7 10  1  0  0  0  0
  8 12  1  0  0  0  0
  9  7  1  0  0  0  0
 10 37  1  0  0  0  0
 11  7  1  0  0  0  0
 13  8  1  0  0  0  0
 13 17  1  0  0  0  0
 14  8  1  0  0  0  0
 15 13  1  0  0  0  0
 16 13  1  0  0  0  0
 17 19  1  0  0  0  0
 17 18  1  0  0  0  0
 19 21  1  0  0  0  0
 19  5  1  0  0  0  0
 20 17  1  0  0  0  0
 22 19  1  0  0  0  0
 23 56  1  0  0  0  0
 23 24  1  0  0  0  0
 24 26  1  0  0  0  0
 24 27  1  0  0  0  0
 25 24  1  0  0  0  0
 26 28  1  0  0  0  0
 29 26  1  0  0  0  0
 30 31  1  0  0  0  0
 30 26  1  0  0  0  0
 30 33  1  0  0  0  0
 32 61  1  0  0  0  0
 32 30  1  0  0  0  0
 34 32  1  0  0  0  0
 35 32  1  0  0  0  0
 36 10  1  0  0  0  0
 38 40  1  0  0  0  0
 38 41  1  0  0  0  0
 39 44  1  0  0  0  0
 39 38  1  0  0  0  0
 41 54  1  0  0  0  0
 42 38  1  0  0  0  0
 43 39  1  0  0  0  0
 44 47  1  0  0  0  0
 44 46  1  0  0  0  0
 45 39  1  0  0  0  0
 48 51  1  0  0  0  0
 48 44  1  0  0  0  0
 49 48  1  0  0  0  0
 50 48  1  0  0  0  0
 52 50  1  0  0  0  0
 53 50  1  0  0  0  0
 55 41  1  0  0  0  0
 57 23  1  0  0  0  0
 58 23  1  0  0  0  0
 59 57  1  0  0  0  0
 60 57  1  0  0  0  0
M  RAD  2   3   2   6   2
M  END
$$$$
