1sa_2put.log
 OpenBabel02271919113D
Gaussian kemi/andersx/programs/g09/g09 # opt freq wb97xd/6-31++g(d,p) geom=conne
 43 40  0  0  0  0  0  0  0  0999 V2000
    0.2321    1.8263    0.0449 S   0  0  0  0  0  0  0  0  0  0  0  0
   -0.1409    0.7066   -0.8829 O   0  0  0  0  0  0  0  0  0  0  0  0
   -0.9214    2.2964    0.8185 O   0  0  0  0  0  0  0  0  0  0  0  0
    1.1756    1.1085    1.1664 O   0  0  0  0  0  0  0  0  0  0  0  0
    1.0670    2.8331   -0.6033 O   0  0  0  0  0  0  0  0  0  0  0  0
    3.4378    1.8472   -0.5051 H   0  0  0  0  0  0  0  0  0  0  0  0
    2.3047   -1.9160    1.2597 C   0  0  0  0  0  0  0  0  0  0  0  0
    2.0644   -1.8320   -0.2509 C   0  0  0  0  0  0  0  0  0  0  0  0
    2.7404   -2.8901    1.5076 H   0  0  0  0  0  0  0  0  0  0  0  0
    1.0459   -1.7547    2.0076 N   0  0  0  0  0  0  0  0  0  0  0  0
    3.0396   -1.1551    1.5559 H   0  0  0  0  0  0  0  0  0  0  0  0
    1.6435   -2.7866   -0.5899 H   0  0  0  0  0  0  0  0  0  0  0  0
    3.3193   -1.4763   -1.0662 C   0  0  0  0  0  0  0  0  0  0  0  0
    1.3089   -1.0669   -0.4517 H   0  0  0  0  0  0  0  0  0  0  0  0
    3.3200   -2.0281   -2.0124 H   0  0  0  0  0  0  0  0  0  0  0  0
    4.2280   -1.7937   -0.5337 H   0  0  0  0  0  0  0  0  0  0  0  0
    3.4126    0.0103   -1.4170 C   0  0  0  0  0  0  0  0  0  0  0  0
    4.2652    0.1725   -2.0913 H   0  0  0  0  0  0  0  0  0  0  0  0
    3.4938    0.8697   -0.2248 N   0  0  0  0  0  0  0  0  0  0  0  0
    2.5056    0.3066   -1.9536 H   0  0  0  0  0  0  0  0  0  0  0  0
    4.3794    0.7394    0.2559 H   0  0  0  0  0  0  0  0  0  0  0  0
    2.0734    0.9549    0.7338 H   0  0  0  0  0  0  0  0  0  0  0  0
    1.1338   -2.1422    2.9411 H   0  0  0  0  0  0  0  0  0  0  0  0
    0.8846   -0.7510    2.1136 H   0  0  0  0  0  0  0  0  0  0  0  0
   -2.0660   -0.8874    0.9999 H   0  0  0  0  0  0  0  0  0  0  0  0
   -4.1303    0.5355   -0.0625 C   0  0  0  0  0  0  0  0  0  0  0  0
   -3.5086   -0.2255   -1.2396 C   0  0  0  0  0  0  0  0  0  0  0  0
   -5.0915    0.0700    0.1865 H   0  0  0  0  0  0  0  0  0  0  0  0
   -3.2786    0.5023    1.1353 N   0  0  0  0  0  0  0  0  0  0  0  0
   -4.3407    1.5652   -0.3803 H   0  0  0  0  0  0  0  0  0  0  0  0
   -2.5479    0.2352   -1.5011 H   0  0  0  0  0  0  0  0  0  0  0  0
   -3.3436   -1.7388   -0.9772 C   0  0  0  0  0  0  0  0  0  0  0  0
   -4.1627   -0.0788   -2.1053 H   0  0  0  0  0  0  0  0  0  0  0  0
   -3.6533   -2.3118   -1.8572 H   0  0  0  0  0  0  0  0  0  0  0  0
   -4.0156   -2.0405   -0.1635 H   0  0  0  0  0  0  0  0  0  0  0  0
   -1.9232   -2.1921   -0.6342 C   0  0  0  0  0  0  0  0  0  0  0  0
   -1.9283   -3.2260   -0.2799 H   0  0  0  0  0  0  0  0  0  0  0  0
   -1.3204   -1.3327    0.4120 N   0  0  0  0  0  0  0  0  0  0  0  0
   -1.2739   -2.1368   -1.5123 H   0  0  0  0  0  0  0  0  0  0  0  0
   -0.8456   -0.5126   -0.0571 H   0  0  0  0  0  0  0  0  0  0  0  0
   -0.5881   -1.7937    0.9902 H   0  0  0  0  0  0  0  0  0  0  0  0
   -3.8186    0.7380    1.9606 H   0  0  0  0  0  0  0  0  0  0  0  0
   -2.5412    1.2120    1.0565 H   0  0  0  0  0  0  0  0  0  0  0  0
  1  3  1  0  0  0  0
  1  4  1  0  0  0  0
  2  1  2  0  0  0  0
  5  1  2  0  0  0  0
  6 19  1  0  0  0  0
  7  9  1  0  0  0  0
  7 11  1  0  0  0  0
  7 10  1  0  0  0  0
  8  7  1  0  0  0  0
 10 24  1  0  0  0  0
 10 23  1  0  0  0  0
 12  8  1  0  0  0  0
 13 16  1  0  0  0  0
 13  8  1  0  0  0  0
 14  8  1  0  0  0  0
 15 13  1  0  0  0  0
 17 13  1  0  0  0  0
 17 19  1  0  0  0  0
 18 17  1  0  0  0  0
 19 21  1  0  0  0  0
 20 17  1  0  0  0  0
 22  4  1  0  0  0  0
 26 28  1  0  0  0  0
 26 29  1  0  0  0  0
 27 32  1  0  0  0  0
 27 26  1  0  0  0  0
 29 42  1  0  0  0  0
 30 26  1  0  0  0  0
 31 27  1  0  0  0  0
 32 36  1  0  0  0  0
 32 35  1  0  0  0  0
 33 27  1  0  0  0  0
 34 32  1  0  0  0  0
 36 37  1  0  0  0  0
 36 38  1  0  0  0  0
 38 41  1  0  0  0  0
 38 25  1  0  0  0  0
 39 36  1  0  0  0  0
 40 38  1  0  0  0  0
 43 29  1  0  0  0  0
M  RAD  1   3   2
M  END
$$$$
