2sa_4put.log
 OpenBabel02271919113D
Gaussian kemi/andersx/programs/g09/g09 # opt freq wb97xd/6-31++g(d,p) geom=conne
 86 80  0  0  0  0  0  0  0  0999 V2000
   -2.7444    1.5920    0.2625 S   0  0  0  0  0  0  0  0  0  0  0  0
   -1.8193    2.6216    0.8337 O   0  0  0  0  0  0  0  0  0  0  0  0
   -3.9650    2.2679   -0.3173 O   0  0  0  0  0  0  0  0  0  0  0  0
   -2.0368    0.8425   -0.8488 O   0  0  0  0  0  0  0  0  0  0  0  0
   -3.1501    0.6087    1.3170 O   0  0  0  0  0  0  0  0  0  0  0  0
    3.0434    0.0377    0.7566 S   0  0  0  0  0  0  0  0  0  0  0  0
    4.4542    0.0367    0.3091 O   0  0  0  0  0  0  0  0  0  0  0  0
    2.1342    0.2305   -0.4704 O   0  0  0  0  0  0  0  0  0  0  0  0
    2.6937   -1.3454    1.3066 O   0  0  0  0  0  0  0  0  0  0  0  0
    2.7240    1.0878    1.7536 O   0  0  0  0  0  0  0  0  0  0  0  0
    5.2627   -2.7484    0.2994 H   0  0  0  0  0  0  0  0  0  0  0  0
    3.8131   -4.2290   -0.1305 C   0  0  0  0  0  0  0  0  0  0  0  0
    2.9107   -4.4420   -1.3481 C   0  0  0  0  0  0  0  0  0  0  0  0
    3.2608   -4.4118    0.7957 H   0  0  0  0  0  0  0  0  0  0  0  0
    4.3212   -2.8363   -0.0724 N   0  0  0  0  0  0  0  0  0  0  0  0
    4.6564   -4.9234   -0.1624 H   0  0  0  0  0  0  0  0  0  0  0  0
    3.5375   -4.4853   -2.2474 H   0  0  0  0  0  0  0  0  0  0  0  0
    1.8146   -3.3713   -1.5424 C   0  0  0  0  0  0  0  0  0  0  0  0
    2.4602   -5.4335   -1.2376 H   0  0  0  0  0  0  0  0  0  0  0  0
    0.8571   -3.8561   -1.7618 H   0  0  0  0  0  0  0  0  0  0  0  0
    1.6702   -2.8047   -0.6149 H   0  0  0  0  0  0  0  0  0  0  0  0
    2.1249   -2.3880   -2.6765 C   0  0  0  0  0  0  0  0  0  0  0  0
    1.2581   -1.7296   -2.8247 H   0  0  0  0  0  0  0  0  0  0  0  0
    3.3450   -1.6218   -2.3986 N   0  0  0  0  0  0  0  0  0  0  0  0
    2.2652   -2.9530   -3.6057 H   0  0  0  0  0  0  0  0  0  0  0  0
    3.6754   -2.2277    0.5571 H   0  0  0  0  0  0  0  0  0  0  0  0
    4.2677   -2.3741   -1.0178 H   0  0  0  0  0  0  0  0  0  0  0  0
   -4.6632   -0.1621   -2.4819 C   0  0  0  0  0  0  0  0  0  0  0  0
   -4.5415   -1.6814   -2.3575 C   0  0  0  0  0  0  0  0  0  0  0  0
   -3.6696    0.2929   -2.4432 H   0  0  0  0  0  0  0  0  0  0  0  0
   -5.4542    0.4564   -1.3771 N   0  0  0  0  0  0  0  0  0  0  0  0
   -5.1351    0.1042   -3.4306 H   0  0  0  0  0  0  0  0  0  0  0  0
   -5.5398   -2.1401   -2.3280 H   0  0  0  0  0  0  0  0  0  0  0  0
   -3.6917   -2.1778   -1.1683 C   0  0  0  0  0  0  0  0  0  0  0  0
   -4.0776   -2.0220   -3.2895 H   0  0  0  0  0  0  0  0  0  0  0  0
   -2.9446   -1.4138   -0.9225 H   0  0  0  0  0  0  0  0  0  0  0  0
   -3.1439   -3.0763   -1.4760 H   0  0  0  0  0  0  0  0  0  0  0  0
   -4.4796   -2.5375    0.0925 C   0  0  0  0  0  0  0  0  0  0  0  0
   -6.3714    0.7669   -1.6828 H   0  0  0  0  0  0  0  0  0  0  0  0
   -5.5655   -0.2364   -0.5805 H   0  0  0  0  0  0  0  0  0  0  0  0
   -0.8693    0.0684    3.6974 C   0  0  0  0  0  0  0  0  0  0  0  0
   -0.7142   -1.4517    3.5654 C   0  0  0  0  0  0  0  0  0  0  0  0
    0.3532   -1.7117    3.5681 H   0  0  0  0  0  0  0  0  0  0  0  0
   -1.4031   -2.0805    2.3357 C   0  0  0  0  0  0  0  0  0  0  0  0
   -1.1469   -1.8997    4.4680 H   0  0  0  0  0  0  0  0  0  0  0  0
   -2.3288   -1.5350    2.1169 H   0  0  0  0  0  0  0  0  0  0  0  0
   -1.6780   -3.1153    2.5739 H   0  0  0  0  0  0  0  0  0  0  0  0
   -0.5480   -2.1420    1.0698 C   0  0  0  0  0  0  0  0  0  0  0  0
   -4.8902    1.2939   -0.9434 H   0  0  0  0  0  0  0  0  0  0  0  0
    0.6319    3.1471   -1.5918 C   0  0  0  0  0  0  0  0  0  0  0  0
    1.2938    4.5229   -1.6443 C   0  0  0  0  0  0  0  0  0  0  0  0
   -0.4195    3.2046   -1.8795 H   0  0  0  0  0  0  0  0  0  0  0  0
    0.6790    2.5662   -0.2208 N   0  0  0  0  0  0  0  0  0  0  0  0
    1.1299    2.4471   -2.2694 H   0  0  0  0  0  0  0  0  0  0  0  0
    0.9413    5.0358   -2.5457 H   0  0  0  0  0  0  0  0  0  0  0  0
    2.8325    4.5100   -1.6633 C   0  0  0  0  0  0  0  0  0  0  0  0
    0.9306    5.1147   -0.7962 H   0  0  0  0  0  0  0  0  0  0  0  0
    3.1831    5.5448   -1.5547 H   0  0  0  0  0  0  0  0  0  0  0  0
    3.1796    4.1714   -2.6481 H   0  0  0  0  0  0  0  0  0  0  0  0
    3.5080    3.6255   -0.6097 C   0  0  0  0  0  0  0  0  0  0  0  0
    3.3275    2.5692   -0.8370 H   0  0  0  0  0  0  0  0  0  0  0  0
    2.9813    3.8696    0.7356 N   0  0  0  0  0  0  0  0  0  0  0  0
    4.5962    3.7633   -0.6747 H   0  0  0  0  0  0  0  0  0  0  0  0
    3.2807    3.1276    1.3681 H   0  0  0  0  0  0  0  0  0  0  0  0
    3.2799    4.7664    1.1028 H   0  0  0  0  0  0  0  0  0  0  0  0
   -0.2809    2.5430    0.2006 H   0  0  0  0  0  0  0  0  0  0  0  0
    1.3183    3.1283    0.3828 H   0  0  0  0  0  0  0  0  0  0  0  0
   -5.2479   -3.2788   -0.1607 H   0  0  0  0  0  0  0  0  0  0  0  0
   -5.1388   -1.3634    0.6689 N   0  0  0  0  0  0  0  0  0  0  0  0
   -3.7936   -3.0152    0.8076 H   0  0  0  0  0  0  0  0  0  0  0  0
   -5.7633   -1.6266    1.4233 H   0  0  0  0  0  0  0  0  0  0  0  0
   -4.4371   -0.7100    1.0493 H   0  0  0  0  0  0  0  0  0  0  0  0
    1.0989    1.6148   -0.2480 H   0  0  0  0  0  0  0  0  0  0  0  0
   -0.2885   -0.8029    0.5094 N   0  0  0  0  0  0  0  0  0  0  0  0
   -1.0389   -2.7546    0.3062 H   0  0  0  0  0  0  0  0  0  0  0  0
    0.4252   -2.5847    1.2998 H   0  0  0  0  0  0  0  0  0  0  0  0
   -0.5405    0.3720    4.7005 H   0  0  0  0  0  0  0  0  0  0  0  0
   -1.9275    0.3268    3.5973 H   0  0  0  0  0  0  0  0  0  0  0  0
   -0.1485    0.7948    2.6506 N   0  0  0  0  0  0  0  0  0  0  0  0
    0.8442    0.9304    2.8378 H   0  0  0  0  0  0  0  0  0  0  0  0
   -0.5961    1.6842    2.4400 H   0  0  0  0  0  0  0  0  0  0  0  0
   -0.1894   -0.0957    1.3406 H   0  0  0  0  0  0  0  0  0  0  0  0
   -1.0521   -0.4025   -0.0716 H   0  0  0  0  0  0  0  0  0  0  0  0
    3.0957   -0.7991   -1.8370 H   0  0  0  0  0  0  0  0  0  0  0  0
    3.7726   -1.2870   -3.2542 H   0  0  0  0  0  0  0  0  0  0  0  0
    0.5976   -0.7299   -0.0130 H   0  0  0  0  0  0  0  0  0  0  0  0
  1  2  1  0  0  0  0
  1  5  1  0  0  0  0
  3  1  2  0  0  0  0
  4  1  2  0  0  0  0
  6  9  1  0  0  0  0
  6 10  1  0  0  0  0
  7  6  2  0  0  0  0
  8  6  2  0  0  0  0
 12 15  1  0  0  0  0
 12 14  1  0  0  0  0
 13 19  1  0  0  0  0
 13 12  1  0  0  0  0
 15 11  1  0  0  0  0
 15 26  1  0  0  0  0
 16 12  1  0  0  0  0
 17 13  1  0  0  0  0
 18 13  1  0  0  0  0
 18 21  1  0  0  0  0
 20 18  1  0  0  0  0
 22 24  1  0  0  0  0
 22 18  1  0  0  0  0
 23 22  1  0  0  0  0
 24 84  1  0  0  0  0
 25 22  1  0  0  0  0
 27 15  1  0  0  0  0
 28 30  1  0  0  0  0
 28 29  1  0  0  0  0
 28 31  1  0  0  0  0
 29 33  1  0  0  0  0
 29 34  1  0  0  0  0
 31 49  1  0  0  0  0
 31 40  1  0  0  0  0
 32 28  1  0  0  0  0
 34 36  1  0  0  0  0
 34 38  1  0  0  0  0
 35 29  1  0  0  0  0
 37 34  1  0  0  0  0
 38 69  1  0  0  0  0
 38 70  1  0  0  0  0
 39 31  1  0  0  0  0
 41 77  1  0  0  0  0
 42 43  1  0  0  0  0
 42 41  1  0  0  0  0
 42 45  1  0  0  0  0
 44 47  1  0  0  0  0
 44 42  1  0  0  0  0
 46 44  1  0  0  0  0
 48 76  1  0  0  0  0
 48 44  1  0  0  0  0
 50 53  1  0  0  0  0
 51 50  1  0  0  0  0
 51 57  1  0  0  0  0
 52 50  1  0  0  0  0
 53 66  1  0  0  0  0
 53 67  1  0  0  0  0
 54 50  1  0  0  0  0
 55 51  1  0  0  0  0
 56 51  1  0  0  0  0
 56 58  1  0  0  0  0
 56 60  1  0  0  0  0
 59 56  1  0  0  0  0
 60 62  1  0  0  0  0
 61 60  1  0  0  0  0
 62 65  1  0  0  0  0
 62 64  1  0  0  0  0
 63 60  1  0  0  0  0
 68 38  1  0  0  0  0
 69 72  1  0  0  0  0
 69 71  1  0  0  0  0
 73 53  1  0  0  0  0
 74 48  1  0  0  0  0
 74 82  1  0  0  0  0
 75 48  1  0  0  0  0
 78 41  1  0  0  0  0
 79 80  1  0  0  0  0
 79 41  1  0  0  0  0
 81 79  1  0  0  0  0
 83 74  1  0  0  0  0
 85 24  1  0  0  0  0
 86 74  1  0  0  0  0
M  RAD  4   2   2   5   2   9   2  10   2
M  END
$$$$
