4sa_3put.log
 OpenBabel02271919113D
Gaussian kemi/andersx/programs/g09/g09 # opt freq wb97xd/6-31++g(d,p) geom=conne
 82 75  0  0  0  0  0  0  0  0999 V2000
   -0.7078    3.2987    0.4445 S   0  0  0  0  0  0  0  0  0  0  0  0
   -1.4431    4.0343   -0.5921 O   0  0  0  0  0  0  0  0  0  0  0  0
   -1.5319    2.9208    1.6091 O   0  0  0  0  0  0  0  0  0  0  0  0
   -0.2331    1.8970   -0.2315 O   0  0  0  0  0  0  0  0  0  0  0  0
    0.5890    3.9005    0.8214 O   0  0  0  0  0  0  0  0  0  0  0  0
   -3.5879    1.5147   -1.8458 S   0  0  0  0  0  0  0  0  0  0  0  0
   -4.0956    0.7997   -3.0266 O   0  0  0  0  0  0  0  0  0  0  0  0
   -3.2291    2.9716   -2.3776 O   0  0  0  0  0  0  0  0  0  0  0  0
   -2.3027    0.9081   -1.3700 O   0  0  0  0  0  0  0  0  0  0  0  0
   -4.5403    1.6363   -0.7329 O   0  0  0  0  0  0  0  0  0  0  0  0
    3.3682   -1.0740    0.6570 S   0  0  0  0  0  0  0  0  0  0  0  0
    4.8740   -1.4290    0.9742 O   0  0  0  0  0  0  0  0  0  0  0  0
    3.2612   -0.8476   -0.7961 O   0  0  0  0  0  0  0  0  0  0  0  0
    2.5818   -2.2171    1.1653 O   0  0  0  0  0  0  0  0  0  0  0  0
    1.4677   -4.8362   -0.0992 H   0  0  0  0  0  0  0  0  0  0  0  0
    3.0344    0.1595    1.4388 O   0  0  0  0  0  0  0  0  0  0  0  0
   -3.4526   -2.5012   -3.2348 H   0  0  0  0  0  0  0  0  0  0  0  0
   -1.5941   -1.5639   -2.9752 C   0  0  0  0  0  0  0  0  0  0  0  0
   -0.7915   -2.8349   -2.7262 C   0  0  0  0  0  0  0  0  0  0  0  0
   -1.2817   -0.7682   -2.2997 H   0  0  0  0  0  0  0  0  0  0  0  0
   -3.0390   -1.7574   -2.6761 N   0  0  0  0  0  0  0  0  0  0  0  0
   -1.5023   -1.1970   -4.0008 H   0  0  0  0  0  0  0  0  0  0  0  0
   -1.2365   -3.3682   -1.8809 H   0  0  0  0  0  0  0  0  0  0  0  0
    0.6694   -2.5082   -2.3973 C   0  0  0  0  0  0  0  0  0  0  0  0
   -0.8391   -3.5055   -3.5945 H   0  0  0  0  0  0  0  0  0  0  0  0
    1.1920   -2.1406   -3.2871 H   0  0  0  0  0  0  0  0  0  0  0  0
    0.7123   -1.7025   -1.6559 H   0  0  0  0  0  0  0  0  0  0  0  0
    1.4426   -3.7021   -1.8495 C   0  0  0  0  0  0  0  0  0  0  0  0
    2.5186   -3.5274   -1.9189 H   0  0  0  0  0  0  0  0  0  0  0  0
    1.1241   -3.9305   -0.4123 N   0  0  0  0  0  0  0  0  0  0  0  0
    1.1979   -4.6164   -2.3981 H   0  0  0  0  0  0  0  0  0  0  0  0
    0.0646   -3.8877   -0.1702 H   0  0  0  0  0  0  0  0  0  0  0  0
    1.6062   -3.2161    0.1705 H   0  0  0  0  0  0  0  0  0  0  0  0
   -3.5529   -0.8677   -2.8580 H   0  0  0  0  0  0  0  0  0  0  0  0
   -3.1513   -2.0081   -1.6416 H   0  0  0  0  0  0  0  0  0  0  0  0
   -0.3206    0.3150    3.2779 C   0  0  0  0  0  0  0  0  0  0  0  0
   -1.5129   -0.3501    3.9800 C   0  0  0  0  0  0  0  0  0  0  0  0
   -0.6283    1.0607    2.5433 H   0  0  0  0  0  0  0  0  0  0  0  0
    0.4919   -0.6892    2.5403 N   0  0  0  0  0  0  0  0  0  0  0  0
    0.3343    0.8277    3.9864 H   0  0  0  0  0  0  0  0  0  0  0  0
   -1.7073   -1.3312    3.5300 H   0  0  0  0  0  0  0  0  0  0  0  0
   -2.8111    0.4728    3.9165 C   0  0  0  0  0  0  0  0  0  0  0  0
   -1.2519   -0.5285    5.0281 H   0  0  0  0  0  0  0  0  0  0  0  0
   -2.5963    1.5469    3.9803 H   0  0  0  0  0  0  0  0  0  0  0  0
   -3.4245    0.2286    4.7896 H   0  0  0  0  0  0  0  0  0  0  0  0
   -3.6896    0.1898    2.6985 C   0  0  0  0  0  0  0  0  0  0  0  0
    1.3512   -0.2781    2.1419 H   0  0  0  0  0  0  0  0  0  0  0  0
    0.7899   -1.4609    3.1357 H   0  0  0  0  0  0  0  0  0  0  0  0
    3.5914    3.0927   -0.9068 C   0  0  0  0  0  0  0  0  0  0  0  0
    4.7330    2.1925   -1.3690 C   0  0  0  0  0  0  0  0  0  0  0  0
    3.1046    3.5888   -1.7487 H   0  0  0  0  0  0  0  0  0  0  0  0
    2.5367    2.3384   -0.1855 N   0  0  0  0  0  0  0  0  0  0  0  0
    3.9528    3.8700   -0.2283 H   0  0  0  0  0  0  0  0  0  0  0  0
    4.3011    1.2806   -1.7988 H   0  0  0  0  0  0  0  0  0  0  0  0
    5.7185    1.8526   -0.2456 C   0  0  0  0  0  0  0  0  0  0  0  0
    5.2689    2.7092   -2.1738 H   0  0  0  0  0  0  0  0  0  0  0  0
    5.1989    1.3931    0.6035 H   0  0  0  0  0  0  0  0  0  0  0  0
    6.1635    2.7837    0.1253 H   0  0  0  0  0  0  0  0  0  0  0  0
    6.8539    0.9317   -0.6860 C   0  0  0  0  0  0  0  0  0  0  0  0
    7.3607    1.3616   -1.5617 H   0  0  0  0  0  0  0  0  0  0  0  0
    6.3704   -0.4337   -0.9528 N   0  0  0  0  0  0  0  0  0  0  0  0
    7.5916    0.8609    0.1180 H   0  0  0  0  0  0  0  0  0  0  0  0
    5.4909   -1.0434    0.2452 H   0  0  0  0  0  0  0  0  0  0  0  0
    5.7076   -0.4509   -1.7247 H   0  0  0  0  0  0  0  0  0  0  0  0
    1.9591    1.7823   -0.8197 H   0  0  0  0  0  0  0  0  0  0  0  0
    2.8924    1.6527    0.5104 H   0  0  0  0  0  0  0  0  0  0  0  0
    7.1410   -1.0440   -1.2074 H   0  0  0  0  0  0  0  0  0  0  0  0
    1.8544    2.9875    0.2855 H   0  0  0  0  0  0  0  0  0  0  0  0
   -0.0975   -1.1056    1.7489 H   0  0  0  0  0  0  0  0  0  0  0  0
   -3.9293   -0.8735    2.6296 H   0  0  0  0  0  0  0  0  0  0  0  0
   -3.0496    0.5736    1.4113 N   0  0  0  0  0  0  0  0  0  0  0  0
   -4.6164    0.7632    2.7708 H   0  0  0  0  0  0  0  0  0  0  0  0
   -2.3540   -0.1212    1.0773 H   0  0  0  0  0  0  0  0  0  0  0  0
   -2.5754    1.4939    1.4802 H   0  0  0  0  0  0  0  0  0  0  0  0
   -2.0854   -2.6931    0.7624 S   0  0  0  0  0  0  0  0  0  0  0  0
   -1.3764   -3.9192    0.2385 O   0  0  0  0  0  0  0  0  0  0  0  0
   -1.1220   -1.5019    0.6153 O   0  0  0  0  0  0  0  0  0  0  0  0
   -3.2736   -2.3925   -0.1022 O   0  0  0  0  0  0  0  0  0  0  0  0
   -2.4622   -2.8457    2.1775 O   0  0  0  0  0  0  0  0  0  0  0  0
   -3.7471    0.6882    0.6570 H   0  0  0  0  0  0  0  0  0  0  0  0
   -2.6681    3.4330   -1.7055 H   0  0  0  0  0  0  0  0  0  0  0  0
   -1.0211    1.4935   -0.7078 H   0  0  0  0  0  0  0  0  0  0  0  0
  1  5  2  0  0  0  0
  1  3  1  0  0  0  0
  2  1  2  0  0  0  0
  4  1  1  0  0  0  0
  6  9  2  0  0  0  0
  6 10  1  0  0  0  0
  7  6  2  0  0  0  0
  8  6  1  0  0  0  0
  8 81  1  0  0  0  0
 11 12  1  0  0  0  0
 11 14  2  0  0  0  0
 11 16  1  0  0  0  0
 13 11  2  0  0  0  0
 17 21  1  0  0  0  0
 18 19  1  0  0  0  0
 18 21  1  0  0  0  0
 18 20  1  0  0  0  0
 19 24  1  0  0  0  0
 19 23  1  0  0  0  0
 21 35  1  0  0  0  0
 22 18  1  0  0  0  0
 24 28  1  0  0  0  0
 24 27  1  0  0  0  0
 25 19  1  0  0  0  0
 26 24  1  0  0  0  0
 28 30  1  0  0  0  0
 29 28  1  0  0  0  0
 30 32  1  0  0  0  0
 30 15  1  0  0  0  0
 30 33  1  0  0  0  0
 31 28  1  0  0  0  0
 34 21  1  0  0  0  0
 36 37  1  0  0  0  0
 36 40  1  0  0  0  0
 37 43  1  0  0  0  0
 38 36  1  0  0  0  0
 39 48  1  0  0  0  0
 39 36  1  0  0  0  0
 41 37  1  0  0  0  0
 42 37  1  0  0  0  0
 42 44  1  0  0  0  0
 42 45  1  0  0  0  0
 46 72  1  0  0  0  0
 46 42  1  0  0  0  0
 47 39  1  0  0  0  0
 49 53  1  0  0  0  0
 49 52  1  0  0  0  0
 50 49  1  0  0  0  0
 50 55  1  0  0  0  0
 51 49  1  0  0  0  0
 52 68  1  0  0  0  0
 52 66  1  0  0  0  0
 54 50  1  0  0  0  0
 55 58  1  0  0  0  0
 55 57  1  0  0  0  0
 56 50  1  0  0  0  0
 59 55  1  0  0  0  0
 59 62  1  0  0  0  0
 60 59  1  0  0  0  0
 61 59  1  0  0  0  0
 63 12  1  0  0  0  0
 64 61  1  0  0  0  0
 65 52  1  0  0  0  0
 67 61  1  0  0  0  0
 69 39  1  0  0  0  0
 70 46  1  0  0  0  0
 71 74  1  0  0  0  0
 71 46  1  0  0  0  0
 73 71  1  0  0  0  0
 75 79  1  0  0  0  0
 76 75  2  0  0  0  0
 77 75  1  0  0  0  0
 78 75  2  0  0  0  0
 80 71  1  0  0  0  0
 82  4  1  0  0  0  0
M  RAD  5   3   2  10   2  16   2  77   2  79   2
M  END
$$$$
