4sa_4put.log
 OpenBabel02271919113D
Gaussian kemi/andersx/programs/g09/g09 # opt freq wb97xd/6-31++g(d,p) geom=conne
100 92  0  0  0  0  0  0  0  0999 V2000
    2.1638    0.6706   -3.0572 S   0  0  0  0  0  0  0  0  0  0  0  0
    3.1523    1.7882   -3.1220 O   0  0  0  0  0  0  0  0  0  0  0  0
    2.9521   -0.6095   -2.7034 O   0  0  0  0  0  0  0  0  0  0  0  0
    1.2517    0.9145   -1.8611 O   0  0  0  0  0  0  0  0  0  0  0  0
    1.3754    0.4554   -4.2742 O   0  0  0  0  0  0  0  0  0  0  0  0
   -1.5822   -3.1618    0.0544 S   0  0  0  0  0  0  0  0  0  0  0  0
   -1.9432   -2.7218    1.4737 O   0  0  0  0  0  0  0  0  0  0  0  0
   -2.8292   -3.4846   -0.6796 O   0  0  0  0  0  0  0  0  0  0  0  0
   -0.8865   -1.9885   -0.6060 O   0  0  0  0  0  0  0  0  0  0  0  0
   -0.6297   -4.3080    0.1396 O   0  0  0  0  0  0  0  0  0  0  0  0
    2.2992    1.0231    2.0358 S   0  0  0  0  0  0  0  0  0  0  0  0
    2.4263   -0.4339    1.6245 O   0  0  0  0  0  0  0  0  0  0  0  0
    3.4401    1.7838    1.4006 O   0  0  0  0  0  0  0  0  0  0  0  0
    1.0022    1.5494    1.4360 O   0  0  0  0  0  0  0  0  0  0  0  0
    3.0020    2.7739   -1.6765 H   0  0  0  0  0  0  0  0  0  0  0  0
    2.2684    1.1483    3.5017 O   0  0  0  0  0  0  0  0  0  0  0  0
   -1.5135    2.7012    0.9732 H   0  0  0  0  0  0  0  0  0  0  0  0
   -0.9803    4.6769    1.2838 C   0  0  0  0  0  0  0  0  0  0  0  0
   -0.0185    4.7876    0.1063 C   0  0  0  0  0  0  0  0  0  0  0  0
   -0.6718    5.3225    2.1114 H   0  0  0  0  0  0  0  0  0  0  0  0
   -1.0293    3.2693    1.7529 N   0  0  0  0  0  0  0  0  0  0  0  0
   -2.0013    4.9326    0.9913 H   0  0  0  0  0  0  0  0  0  0  0  0
   -0.2049    3.9375   -0.5625 H   0  0  0  0  0  0  0  0  0  0  0  0
    1.4553    4.8563    0.5295 C   0  0  0  0  0  0  0  0  0  0  0  0
   -0.2722    5.6835   -0.4696 H   0  0  0  0  0  0  0  0  0  0  0  0
    1.6636    4.1676    1.3569 H   0  0  0  0  0  0  0  0  0  0  0  0
    1.6758    5.8637    0.8976 H   0  0  0  0  0  0  0  0  0  0  0  0
    2.4152    4.5243   -0.6089 C   0  0  0  0  0  0  0  0  0  0  0  0
    2.0885    4.9736   -1.5512 H   0  0  0  0  0  0  0  0  0  0  0  0
    2.5146    3.0633   -0.7988 N   0  0  0  0  0  0  0  0  0  0  0  0
    3.4211    4.8889   -0.3903 H   0  0  0  0  0  0  0  0  0  0  0  0
    2.9527    2.6016    0.0393 H   0  0  0  0  0  0  0  0  0  0  0  0
    1.6142    2.5715   -0.9043 H   0  0  0  0  0  0  0  0  0  0  0  0
   -0.0998    2.8133    1.8867 H   0  0  0  0  0  0  0  0  0  0  0  0
   -1.6022    3.1668    2.5890 H   0  0  0  0  0  0  0  0  0  0  0  0
   -1.9468    0.4913   -3.3868 C   0  0  0  0  0  0  0  0  0  0  0  0
   -3.4286    0.1360   -3.3519 C   0  0  0  0  0  0  0  0  0  0  0  0
   -1.3720   -0.1407   -4.0688 H   0  0  0  0  0  0  0  0  0  0  0  0
   -1.3448    0.3698   -2.0398 N   0  0  0  0  0  0  0  0  0  0  0  0
   -1.8024    1.5250   -3.7065 H   0  0  0  0  0  0  0  0  0  0  0  0
   -3.8999    0.7187   -2.5520 H   0  0  0  0  0  0  0  0  0  0  0  0
   -3.6892   -1.3698   -3.1569 C   0  0  0  0  0  0  0  0  0  0  0  0
   -3.8881    0.4671   -4.2888 H   0  0  0  0  0  0  0  0  0  0  0  0
   -2.8513   -1.8681   -2.6543 H   0  0  0  0  0  0  0  0  0  0  0  0
   -3.7734   -1.8589   -4.1326 H   0  0  0  0  0  0  0  0  0  0  0  0
   -4.9536   -1.6904   -2.3635 C   0  0  0  0  0  0  0  0  0  0  0  0
   -0.3149    0.6013   -2.0489 H   0  0  0  0  0  0  0  0  0  0  0  0
   -1.7975    1.0153   -1.3495 H   0  0  0  0  0  0  0  0  0  0  0  0
    2.2864   -2.9931   -0.3788 C   0  0  0  0  0  0  0  0  0  0  0  0
    3.6830   -3.5702   -0.5893 C   0  0  0  0  0  0  0  0  0  0  0  0
    1.6457   -3.7428    0.0899 H   0  0  0  0  0  0  0  0  0  0  0  0
    1.5898   -2.5945   -1.6297 N   0  0  0  0  0  0  0  0  0  0  0  0
    2.2840   -2.1114    0.2644 H   0  0  0  0  0  0  0  0  0  0  0  0
    4.0237   -3.9192    0.3941 H   0  0  0  0  0  0  0  0  0  0  0  0
    4.7656   -2.6678   -1.1979 C   0  0  0  0  0  0  0  0  0  0  0  0
    3.6005   -4.4700   -1.2125 H   0  0  0  0  0  0  0  0  0  0  0  0
    4.4685   -2.3143   -2.1909 H   0  0  0  0  0  0  0  0  0  0  0  0
    5.6555   -3.2884   -1.3469 H   0  0  0  0  0  0  0  0  0  0  0  0
    5.2128   -1.4677   -0.3601 C   0  0  0  0  0  0  0  0  0  0  0  0
    5.4029   -1.7496    0.6800 H   0  0  0  0  0  0  0  0  0  0  0  0
    4.2218   -0.3640   -0.3618 N   0  0  0  0  0  0  0  0  0  0  0  0
    6.1408   -1.0735   -0.7802 H   0  0  0  0  0  0  0  0  0  0  0  0
    4.6313    0.5323   -0.0949 H   0  0  0  0  0  0  0  0  0  0  0  0
    3.7640   -0.2935   -1.3139 H   0  0  0  0  0  0  0  0  0  0  0  0
    2.0833   -1.7807   -2.1279 H   0  0  0  0  0  0  0  0  0  0  0  0
    0.6199   -2.3053   -1.3589 H   0  0  0  0  0  0  0  0  0  0  0  0
    3.4663   -0.4841    0.3699 H   0  0  0  0  0  0  0  0  0  0  0  0
    1.5060   -3.3799   -2.2729 H   0  0  0  0  0  0  0  0  0  0  0  0
   -1.4043   -0.5793   -1.6419 H   0  0  0  0  0  0  0  0  0  0  0  0
   -0.9901    0.0306    3.5669 C   0  0  0  0  0  0  0  0  0  0  0  0
   -0.7004   -1.2578    4.3343 C   0  0  0  0  0  0  0  0  0  0  0  0
   -1.9265    0.4568    3.9364 H   0  0  0  0  0  0  0  0  0  0  0  0
   -1.1528   -0.1311    2.0939 N   0  0  0  0  0  0  0  0  0  0  0  0
   -0.1804    0.7474    3.7315 H   0  0  0  0  0  0  0  0  0  0  0  0
   -1.4960   -1.9875    4.1333 H   0  0  0  0  0  0  0  0  0  0  0  0
    0.6995   -1.8682    4.1540 C   0  0  0  0  0  0  0  0  0  0  0  0
   -0.8055   -0.9989    5.3930 H   0  0  0  0  0  0  0  0  0  0  0  0
    1.4477   -1.0671    4.1506 H   0  0  0  0  0  0  0  0  0  0  0  0
    0.9175   -2.5040    5.0231 H   0  0  0  0  0  0  0  0  0  0  0  0
    0.9305   -2.6854    2.8910 C   0  0  0  0  0  0  0  0  0  0  0  0
    0.8003   -2.0870    1.9897 H   0  0  0  0  0  0  0  0  0  0  0  0
   -0.0197   -3.8351    2.7869 N   0  0  0  0  0  0  0  0  0  0  0  0
    1.9492   -3.0778    2.8748 H   0  0  0  0  0  0  0  0  0  0  0  0
   -0.0412   -4.4146    3.6229 H   0  0  0  0  0  0  0  0  0  0  0  0
    0.1580   -4.4031    1.9434 H   0  0  0  0  0  0  0  0  0  0  0  0
   -1.3382   -1.1105    1.8090 H   0  0  0  0  0  0  0  0  0  0  0  0
   -0.3359    0.2631    1.5942 H   0  0  0  0  0  0  0  0  0  0  0  0
   -5.7865   -1.0459   -2.6573 H   0  0  0  0  0  0  0  0  0  0  0  0
   -4.7237   -1.5020   -0.9017 N   0  0  0  0  0  0  0  0  0  0  0  0
   -5.2409   -2.7339   -2.5093 H   0  0  0  0  0  0  0  0  0  0  0  0
   -3.9565   -2.1514   -0.6159 H   0  0  0  0  0  0  0  0  0  0  0  0
   -5.5520   -1.7555   -0.3661 H   0  0  0  0  0  0  0  0  0  0  0  0
   -2.0304    0.3867    1.8089 H   0  0  0  0  0  0  0  0  0  0  0  0
   -3.7268    1.8666    0.5108 S   0  0  0  0  0  0  0  0  0  0  0  0
   -4.2625    3.2008    0.7926 O   0  0  0  0  0  0  0  0  0  0  0  0
   -3.5022    1.0673    1.7693 O   0  0  0  0  0  0  0  0  0  0  0  0
   -4.5688    1.0780   -0.4514 O   0  0  0  0  0  0  0  0  0  0  0  0
   -2.3242    2.0123   -0.1305 O   0  0  0  0  0  0  0  0  0  0  0  0
   -0.9774   -3.4503    2.5224 H   0  0  0  0  0  0  0  0  0  0  0  0
   -4.5215   -0.4791   -0.6538 H   0  0  0  0  0  0  0  0  0  0  0  0
  1  3  1  0  0  0  0
  1  4  1  0  0  0  0
  2  1  2  0  0  0  0
  5  1  2  0  0  0  0
  6 10  1  0  0  0  0
  6  7  1  0  0  0  0
  8  6  2  0  0  0  0
  9  6  2  0  0  0  0
 11 16  1  0  0  0  0
 12 11  1  0  0  0  0
 13 11  2  0  0  0  0
 14 11  2  0  0  0  0
 15 30  1  0  0  0  0
 17 21  1  0  0  0  0
 18 21  1  0  0  0  0
 18 20  1  0  0  0  0
 19 24  1  0  0  0  0
 19 18  1  0  0  0  0
 21 34  1  0  0  0  0
 21 35  1  0  0  0  0
 22 18  1  0  0  0  0
 23 19  1  0  0  0  0
 24 27  1  0  0  0  0
 24 26  1  0  0  0  0
 25 19  1  0  0  0  0
 28 31  1  0  0  0  0
 28 24  1  0  0  0  0
 29 28  1  0  0  0  0
 30 28  1  0  0  0  0
 30 32  1  0  0  0  0
 33 30  1  0  0  0  0
 36 37  1  0  0  0  0
 36 39  1  0  0  0  0
 37 42  1  0  0  0  0
 37 41  1  0  0  0  0
 38 36  1  0  0  0  0
 39 69  1  0  0  0  0
 39 48  1  0  0  0  0
 40 36  1  0  0  0  0
 42 44  1  0  0  0  0
 42 46  1  0  0  0  0
 43 37  1  0  0  0  0
 45 42  1  0  0  0  0
 46 89  1  0  0  0  0
 47 39  1  0  0  0  0
 49 51  1  0  0  0  0
 49 53  1  0  0  0  0
 50 49  1  0  0  0  0
 50 54  1  0  0  0  0
 52 66  1  0  0  0  0
 52 49  1  0  0  0  0
 55 50  1  0  0  0  0
 55 59  1  0  0  0  0
 56 50  1  0  0  0  0
 57 55  1  0  0  0  0
 58 55  1  0  0  0  0
 59 60  1  0  0  0  0
 61 59  1  0  0  0  0
 61 63  1  0  0  0  0
 61 67  1  0  0  0  0
 62 59  1  0  0  0  0
 64 61  1  0  0  0  0
 65 52  1  0  0  0  0
 68 52  1  0  0  0  0
 70 74  1  0  0  0  0
 70 72  1  0  0  0  0
 70 71  1  0  0  0  0
 71 77  1  0  0  0  0
 73 70  1  0  0  0  0
 75 71  1  0  0  0  0
 76 71  1  0  0  0  0
 76 79  1  0  0  0  0
 78 76  1  0  0  0  0
 80 76  1  0  0  0  0
 81 80  1  0  0  0  0
 82 80  1  0  0  0  0
 82 84  1  0  0  0  0
 83 80  1  0  0  0  0
 85 82  1  0  0  0  0
 86 73  1  0  0  0  0
 87 73  1  0  0  0  0
 88 46  1  0  0  0  0
 89100  1  0  0  0  0
 89 91  1  0  0  0  0
 89 92  1  0  0  0  0
 90 46  1  0  0  0  0
 93 73  1  0  0  0  0
 94 95  1  0  0  0  0
 94 96  1  0  0  0  0
 97 94  2  0  0  0  0
 98 94  2  0  0  0  0
 99 82  1  0  0  0  0
M  RAD  8   3   2   4   2   7   2  10   2  12   2  16   2  95   2  96   2
M  END
$$$$
