30
2fa2dma-1
H        0.00539000      -4.01047500       0.00039500
H        1.31459000      -0.87402800       0.31390800
C        0.00388700      -2.90391500       0.00023100
O        0.84849900      -2.33727500       0.74113900
O       -0.84224100      -2.33975700      -0.74080300
H       -0.00548000       4.01017800       0.00056700
H       -1.31420800       0.87397400      -0.31403400
C       -0.00396600       2.90361900       0.00019100
O       -0.84791400       2.33727600      -0.74169200
O        0.84157100       2.33911300       0.74166800
N       -1.80297600      -0.00224200       0.04481500
C       -3.17999600      -0.00397100      -0.48325500
C       -1.73113300      -0.00205700       1.51806400
H       -1.31205800      -0.87732000      -0.31382200
H       -3.70215400       0.89147900      -0.14128000
H       -3.13449000      -0.00353500      -1.57230100
H       -3.69965400      -0.90108300      -0.14183900
H       -2.21925100       0.89361500       1.90666300
H       -2.21802200      -0.89833400       1.90681300
H       -0.68379700      -0.00129800       1.81897300
N        1.80306200       0.00237500      -0.04499200
C        1.73104300       0.00206000      -1.51821300
C        3.18014700       0.00464900       0.48291300
H        1.31184100       0.87727300       0.31380900
H        2.22046000      -0.89289000      -1.90684900
H        0.68367300      -0.00033200      -1.81900600
H        2.21652900       0.89904200      -1.90708900
H        3.70230300      -0.89109500       0.14170300
H        3.69974100       0.90145600       0.14059600
H        3.13477200       0.00526300       1.57196500
30
2fa2dma-2
H        1.43750200      -3.60167100      -0.74294600
H        1.83359100      -0.27772000      -0.43720600
C        1.24042900      -2.53185100      -0.53809500
O        2.02957700      -1.70379100      -1.05669000
O        0.25392500      -2.26823900       0.19979000
H       -1.44006400       3.60154800      -0.74143600
H       -1.83386500       0.27825300      -0.43692700
C       -1.24117300       2.53186800      -0.53760500
O       -2.02981000       1.70306700      -1.05594800
O       -0.25347400       2.26919400       0.19887900
N        1.84573800       0.64423200       0.11467700
C        2.87842100       1.53536600      -0.44321800
C        2.05317100       0.30562400       1.53487400
H        0.91874800       1.13584100       0.03848300
H        3.85379400       1.05099800      -0.36819600
H        2.64784800       1.72399900      -1.49185300
H        2.88005000       2.48011400       0.10343200
H        3.04299000      -0.13742200       1.66160300
H        1.96124600       1.20762100       2.14292700
H        1.29769400      -0.42739900       1.82190200
N       -1.84574300      -0.64417300       0.11459800
C       -2.87881400      -1.53497100      -0.44305800
C       -2.05219400      -0.30631600       1.53508200
H       -0.91879600      -1.13571700       0.03775000
H       -3.85425300      -1.05099200      -0.36633800
H       -2.64948500      -1.72231600      -1.49220000
H       -2.87953900      -2.48034100       0.10252500
H       -3.04184400       0.13685400       1.66271700
H       -1.95996800      -1.20863000       2.14262100
H       -1.29639700       0.42640000       1.82208300
30
2fa2dma-3
H       -4.45017300       0.11685400       0.72200100
H       -2.04886400      -1.33781200       0.06007600
C       -3.36963400       0.00412900       0.54861500
O       -3.06012700      -1.21917100       0.21392400
O       -2.60163700       0.94473800       0.66959200
H       -0.49555400      -3.15975300      -1.22195100
H        1.82275200      -1.03089000      -0.11455900
C        0.07902000      -2.33821400      -0.75366600
O        1.32281000      -2.34697600      -0.90112600
O       -0.56682500      -1.45954400      -0.11403200
N        2.03359600      -0.15079100       0.45173200
C        3.38719900       0.34235000       0.16470900
C        1.77732700      -0.44652600       1.87150000
H        1.29803700       0.57371700       0.13194200
H        4.12827500      -0.39398100       0.48290600
H        3.48399100       0.50476700      -0.90976300
H        3.55988700       1.28431600       0.69116200
H        2.47760100      -1.20704600       2.22387200
H        1.89245400       0.46424300       2.46425100
H        0.75506800      -0.81895900       1.95018900
N        0.09692200       1.60699100      -0.37179400
C        0.00382900       1.42662600      -1.81901300
C        0.15008400       3.01265200       0.01768700
H       -0.73671200       1.18536600       0.04741900
H        0.90733600       1.81747100      -2.30077500
H       -0.07840400       0.35947500      -2.03739800
H       -0.86590200       1.94230300      -2.25100700
H        1.06592800       3.47148900      -0.37152400
H       -0.70912800       3.58534600      -0.36013900
H        0.15905300       3.09121700       1.10785500
