61
3sa4dma-3
S        3.09250900       0.04282800       0.50704600
O        2.55694800       1.15706600       1.53278000
O        4.53971700       0.14234900       0.56997400
O        2.50072900       0.41059500      -0.81547600
O        2.53461400      -1.26202400       0.96523700
H        1.91522700       1.96863900      -0.90627300
H        1.55892900       1.19349500       1.53961100
S       -1.56487500      -2.06311200      -0.81751600
O       -2.37850700      -1.96447000       0.42615200
O       -2.29811200      -1.50214700      -1.97250700
O       -0.27761300      -1.15284500      -0.57761200
O       -0.97312500      -3.39324500      -1.03944800
H        0.80327200      -3.21190200      -1.00699200
H       -0.47724600      -0.15068100      -0.64390800
S       -0.97642800       2.02165800       0.62579000
O       -0.82561300       1.31581000      -0.71133800
O       -0.56013100       3.43545800       0.46503500
O       -2.38679000       1.85622600       1.09257900
O       -0.06066700       1.33552700       1.62732600
H       -0.65664300      -0.02248700       2.21778500
H       -3.19878300       1.00283800      -0.10533700
N        1.80830700      -2.95012800      -1.02557900
H        1.94144000      -2.21369200      -0.28807800
C        2.65492500      -4.10628300      -0.67541800
H        2.34888700      -4.48236300       0.30072100
H        2.53751400      -4.88809600      -1.42769300
H        3.69490600      -3.78105000      -0.62626500
C        2.11367500      -2.35156800      -2.34358200
H        1.95374500      -3.09986700      -3.12190100
H        1.45161200      -1.49912300      -2.48240900
H        3.14776900      -2.00539700      -2.34489500
N       -1.05821900      -0.92418100       2.59333800
H       -1.52026900      -1.37928800       1.77636500
C        0.05087200      -1.77128600       3.07788100
H        0.81323200      -1.81970800       2.29765100
H        0.48754800      -1.31204700       3.96659700
H       -0.32868000      -2.76581600       3.32012400
C       -2.08800500      -0.59534100       3.59682900
H       -1.61576100      -0.09687200       4.44485700
H       -2.80487000       0.08390300       3.13411000
H       -2.58313700      -1.50984600       3.92882100
N       -3.74184200       0.61218400      -0.91594600
H       -3.14874200      -0.12416900      -1.35778500
C       -4.97582000      -0.02627400      -0.41809100
H       -4.68396100      -0.85496700       0.22758200
H       -5.56271300       0.70714000       0.13751300
H       -5.55307400      -0.40642900      -1.26257700
C       -3.95048800       1.71178100      -1.87794900
H       -4.54769200       2.49343900      -1.40597700
H       -2.97099500       2.10863400      -2.14484800
H       -4.46043700       1.32905800      -2.76367400
N        1.72815800       2.99593100      -1.02627600
H        0.93003800       3.24550000      -0.39752800
C        2.94762600       3.72627900      -0.62488700
H        3.18103700       3.45679500       0.40533900
H        3.77296500       3.42316800      -1.27089000
H        2.77357400       4.80029800      -0.70949900
C        1.29578000       3.21750400      -2.41962700
H        2.08327900       2.88275800      -3.09696400
H        0.38743400       2.63533300      -2.57638100
H        1.09349000       4.27889200      -2.57362900
61
3sa4dma-24
S       -3.10677300      -1.16464100      -0.71502500
O       -3.25504400      -0.59071400       0.67520700
O       -2.00538800      -2.15742100      -0.71600800
O       -4.35220000      -1.56512600      -1.33084900
O       -2.56487100       0.08224400      -1.58458600
H       -1.70532200       0.36707800      -1.14637600
S        2.66560900      -1.50079800       0.75907200
O        2.81584600      -0.86956900      -0.60151400
O        1.38829400      -2.25435400       0.80148100
O        3.83619600      -2.21823700       1.21931500
O        2.50237000      -0.26630600       1.77390900
H        1.93868400       0.47591100       1.38902400
S        0.29207700       1.86685700      -0.24024500
O       -0.69228700       2.96172300       0.02264100
O        0.96901600       2.01119500      -1.54781500
O        1.33853000       1.85662100       0.86700000
O       -0.44346400       0.54055700      -0.16723500
C       -1.27395400      -2.66935000       2.50568100
N       -0.90475400      -1.33837300       1.98110400
C       -0.51795500      -0.35544200       3.01206400
H       -0.10709400      -1.47182600       1.33080800
H       -2.11129600      -2.56320800       3.19719500
H       -1.56771000      -3.28957900       1.65932400
H       -0.41002000      -3.10396700       3.00949000
H       -1.35110000      -0.22028400       3.70508500
H        0.36092500      -0.72140000       3.54399600
H       -0.27064500       0.58384300       2.51563500
H       -1.70422600      -0.96988400       1.42948800
C        4.01419000       2.47680600      -1.70946900
N        3.73921800       1.70965700      -0.47774300
C        4.85026200       1.68136100       0.49826300
H        2.87098000       2.05655300      -0.01423200
H        4.84916100       2.01513100      -2.23941000
H        3.10852900       2.46851500      -2.31440500
H        4.26926500       3.50319300      -1.44047200
H        5.72574600       1.22775200       0.03146900
H        5.07931000       2.70127100       0.81094600
H        4.53942200       1.08323400       1.35526500
H        3.47303700       0.72515400      -0.70455000
C        0.70472700      -3.05112900      -2.24723500
N        0.46698100      -1.62083600      -1.95773800
C        0.19843900      -0.78942100      -3.15245000
H       -0.34277900      -1.56929500      -1.31750500
H        1.57320700      -3.14303900      -2.90105600
H        0.89366600      -3.55749500      -1.30137900
H       -0.18289600      -3.46449000      -2.72722600
H        0.99380800      -0.95765900      -3.88094400
H       -0.76691700      -1.07390200      -3.57228000
H        0.19343900       0.25801000      -2.84706800
H        1.28391600      -1.23757500      -1.44371300
C       -4.12021300       2.65921800      -0.32333100
N       -3.14287300       2.16708600       0.67013900
C       -3.36186300       2.66906700       2.03887600
H       -3.17463100       1.12293700       0.67866000
H       -4.04087400       3.74498500      -0.39591900
H       -3.88729400       2.19735500      -1.28239200
H       -5.12700200       2.37225900      -0.01460000
H       -3.30721700       3.75868700       2.03656800
H       -4.33916600       2.34242800       2.39878500
H       -2.57676300       2.27416200       2.68436100
H       -2.16254700       2.44815500       0.36951500
61
3sa4dma-5
S        2.76307900       1.42651600      -0.02317900
O        1.83491400       0.91318400      -1.24322400
O        2.80902500       0.27949300       0.92769400
O        2.03677400       2.57568500       0.58094500
O        4.03488500       1.75905600      -0.64380800
H        0.78080900       3.29296100      -0.31955700
H        1.13228000       0.26797100      -0.92662700
S        0.24428300      -2.20810300      -0.28668500
O        0.97626400      -2.28880400       1.00998700
O       -1.05463200      -2.94345200      -0.22879400
O       -0.07741000      -0.71498500      -0.51924200
O        1.10271100      -2.68590900      -1.40435700
H        2.65795400      -2.27819100      -0.94014500
H       -1.37055900      -0.06426500      -0.95044500
S       -2.79540100       1.24606800       0.05877200
O       -2.19407900       0.47639600      -1.21356400
O       -3.51917000       2.38420800      -0.48614600
O       -3.60355000       0.24753600       0.79655400
O       -1.59419300       1.65926400       0.86240600
H       -0.33954500       0.56141300       1.54993000
H       -3.66174700      -1.25163500      -0.01443000
N        3.55560600      -1.97246000      -0.48387500
H        3.28096500      -1.17324700       0.13143500
C        4.05283100      -3.07825600       0.35716900
H        3.25212000      -3.35484000       1.04328900
H        4.30958000      -3.92689700      -0.27928900
H        4.93436800      -2.74583200       0.90839500
C        4.50663900      -1.48463700      -1.50376300
H        4.75894700      -2.30395100      -2.17924100
H        4.03622400      -0.66948100      -2.05329900
H        5.40354900      -1.10715300      -1.01113400
N        0.11575600       0.02543600       2.31004100
H        0.80183300      -0.60445400       1.85234800
C        0.77070300       0.96700000       3.24199700
H        1.47805400       1.57346700       2.67803300
H        0.00280000       1.59710400       3.69408000
H        1.29223600       0.39844100       4.01322000
C       -0.93983200      -0.80490300       2.93040000
H       -1.75092000      -0.15418300       3.25870000
H       -1.30366700      -1.50970200       2.18402700
H       -0.51304600      -1.35459500       3.77027400
N       -3.56239500      -2.18735500      -0.46705500
H       -2.52521900      -2.40597900      -0.44511000
C       -4.25211300      -3.20197700       0.35233000
H       -3.83427200      -3.17779600       1.35870000
H       -5.32021000      -2.98059500       0.38922100
H       -4.08656500      -4.18843600      -0.08315400
C       -4.02475600      -2.11661700      -1.86776600
H       -5.09520100      -1.90370700      -1.88684400
H       -3.48104500      -1.31297600      -2.36323800
H       -3.82173100      -3.06940600      -2.35919500
N       -0.20357400       3.48152200      -0.61383700
H       -0.74571200       2.76919200      -0.07305400
C       -0.64452000       4.81628200      -0.16374300
H       -0.45725400       4.90231200       0.90665800
H       -0.08510700       5.58486100      -0.69941200
H       -1.71329100       4.91637500      -0.35911100
C       -0.38377100       3.23607600      -2.06207200
H        0.14870100       4.00589000      -2.62321400
H        0.03233200       2.25715600      -2.29544600
H       -1.45018900       3.25730000      -2.29075000
