60
3sa2ma1tma1eda-24
S       -2.38548200      -2.33745700       0.18891100
O       -2.67633700      -1.16837700       1.05313500
O       -0.95617600      -2.76459200       0.39162800
O       -3.34188500      -3.42401500       0.23590600
O       -2.42712600      -1.79074800      -1.32726600
H       -2.12253100      -0.83542900      -1.37380700
S        3.85400300      -1.19436300       0.30383100
O        3.19448500      -2.33900400      -0.34972000
O        4.50925300      -0.27724700      -0.64940100
O        3.02728200      -0.49998600       1.30611400
O        5.03803300      -1.83327600       1.21256900
H        5.58615500      -2.38979700       0.64278100
S       -0.63484900       1.42254500      -0.86853500
O       -0.39287100       2.75868300      -1.43961600
O       -1.76477100       0.71571400      -1.56741900
O        0.62036400       0.56135400      -0.98505000
O       -0.97561600       1.50947900       0.60438600
C       -0.04109900      -0.81014400       3.22826800
N        0.24940400      -0.68793100       1.78779300
H       -0.13952300      -1.50952500       1.28060900
H       -0.21505600       0.15398100       1.37886700
H        0.46200600      -1.69148200       3.62577900
H        0.31417900       0.07992300       3.74840800
H       -1.11930400      -0.91463500       3.35041300
H        1.26357100      -0.63267500       1.59456200
C        0.43201200      -2.51697400      -3.03877500
N        0.73084900      -2.08515900      -1.65977000
H        1.69494900      -2.29852800      -1.35336200
H        0.61740900      -1.05372900      -1.53701800
H        0.58931200      -3.59218300      -3.12276900
H       -0.60972200      -2.28223500      -3.25556000
H        1.08824900      -1.99159800      -3.73258500
H        0.08209700      -2.51834300      -0.96930000
N       -3.84109800       1.32346000       0.43408600
C       -4.20007500       1.27436800       1.87183000
C       -3.71969600       2.71822600      -0.06164600
C       -4.77741300       0.52951900      -0.40178100
H       -3.39723200       2.68624200      -1.10186500
H       -4.69049000       3.20956800       0.03325800
H       -2.96016600       3.22965300       0.52772700
H       -4.20594600       0.23009200       2.18129500
H       -3.44091800       1.82220000       2.43069200
H       -5.18080800       1.73448300       2.01070300
H       -4.81346400      -0.48613900      -0.01179900
H       -5.76295100       0.99907800      -0.36418600
H       -4.39298500       0.51779600      -1.42106300
H       -2.90166700       0.89022300       0.35773300
C        1.88743900       3.72581500       0.71368300
N        1.84129100       4.49601700      -0.52944000
C        3.00027200       2.67964000       0.62724500
N        2.90456100       1.99497300      -0.68504200
H        1.90549000       5.49269400      -0.37520800
H        0.98099800       4.28487200      -1.03052000
H        2.08821800       4.36581700       1.57880400
H        0.93067600       3.22219100       0.89232000
H        2.93143900       1.91593100       1.40323400
H        3.98555200       3.15074300       0.67389100
H        2.00246200       1.45746000      -0.77744300
H        3.66591600       1.30484400      -0.81184100
H        2.90455600       2.72079400      -1.40853000
60
3sa2ma1tma1eda-23
S       -2.37834800      -2.33554400       0.19065300
O       -2.65485000      -1.16947200       1.06392300
O       -0.94558300      -2.76199800       0.36553200
O       -3.33342000      -3.42251300       0.25126000
O       -2.44794400      -1.78343200      -1.32285800
H       -2.14289500      -0.82865400      -1.37060100
S        3.86513100      -1.20196400       0.31455800
O        4.56478000      -0.23718200      -0.56055900
O        3.06961900      -0.51552100       1.35967000
O        3.14258700      -2.27140200      -0.37616300
O        5.03777400      -2.01087000       1.09127400
H        5.69010400      -1.36884000       1.40130000
S       -0.64348400       1.42702200      -0.87724800
O       -0.95868300       1.51168000       0.60143000
O        0.60767700       0.56262200      -1.01582300
O       -1.78590900       0.72410400      -1.55902900
O       -0.40772100       2.76374600      -1.44972500
C       -0.03340800      -0.83596600       3.19775600
N        0.27936700      -0.69672500       1.76330200
H       -0.10344800      -1.51319200       1.24368700
H       -0.18192100       0.14833500       1.35867900
H        0.46578100      -1.72074600       3.59260200
H        0.31116500       0.04916300       3.73344900
H       -1.11324000      -0.94484300       3.30049000
H        1.29748400      -0.63961200       1.58753800
C        0.38083600      -2.52073900      -3.08912800
N        0.69737300      -2.07769100      -1.71778400
H        0.06319500      -2.51180100      -1.01414800
H        1.66538500      -2.28046400      -1.42238200
H       -0.66654900      -2.29710900      -3.29002600
H        1.02068500      -1.99384900      -3.79693800
H        0.54721000      -3.59486800      -3.16881100
H        0.58120400      -1.04696700      -1.59617600
N       -3.83033100       1.32247000       0.47252300
C       -3.71653400       2.71823900      -0.02213100
C       -4.78201300       0.53103500      -0.34828000
C       -4.16357200       1.27010900       1.91634500
H       -4.81071700      -0.48585700       0.03913300
H       -5.76665900       1.00045500      -0.29097300
H       -4.41673600       0.52238800      -1.37461000
H       -2.94607700       3.22756600       0.55477600
H       -3.41258300       2.68817200      -1.06798000
H       -4.68502500       3.21021600       0.09113300
H       -3.39391000       1.81576000       2.46284500
H       -5.14122100       1.73075300       2.07393900
H       -4.16492800       0.22501900       2.22314400
H       -2.89314300       0.88826800       0.37835400
C        1.86879300       3.72867100       0.69016000
N        1.84371700       4.48916300      -0.55943700
C        2.97117000       2.66963600       0.62326500
N        2.89226400       1.98261000      -0.68872300
H        1.91646500       5.48639100      -0.41260400
H        0.98572500       4.28283600      -1.06653800
H        2.06828200       4.37354100       1.55201700
H        0.90525100       3.23671600       0.86341700
H        2.88114300       1.90836600       1.39967300
H        3.96070400       3.13030800       0.68560800
H        1.98869300       1.44890400      -0.79470800
H        3.65595100       1.29100600      -0.79821700
H        2.90685400       2.70762800      -1.41304000
60
3sa2ma1tma1eda-32
S       -2.41329900      -2.02366500       1.00593300
O       -1.06609500      -2.64620000       0.75839800
O       -2.90602400      -1.40328600      -0.24689200
O       -3.34325000      -2.88630800       1.70587700
O       -2.11509000      -0.80155300       2.01699200
H       -1.88254000       0.04037400       1.52218800
S        3.70224500      -1.39958900      -0.68816600
O        3.54004100      -1.04251700       0.73113800
O        2.54069400      -2.09780400      -1.27032400
O        4.19685200      -0.29104900      -1.52826100
O        4.89814700      -2.49709200      -0.64159400
H        5.05945300      -2.80507300      -1.54366500
S       -0.58406200       1.59728700      -0.27035700
O       -0.17577200       2.99579100      -0.49572200
O        0.64364500       0.75393300       0.07548500
O       -1.56686200       1.47841800       0.86519300
O       -1.21225900       0.99019300      -1.49902000
C       -0.74124200      -2.35337800      -2.80675500
N       -0.19516000      -1.59593700      -1.66613000
H       -0.54959200      -0.61475400      -1.65751600
H       -0.50777000      -2.02946900      -0.77279200
H       -0.45869900      -1.86394800      -3.73909800
H       -0.34474600      -3.36848400      -2.78884900
H       -1.82663300      -2.38127600      -2.70897100
H        0.83677600      -1.59426300      -1.64951600
C        0.91728700      -0.95600600       3.33260800
N        1.00016400      -1.22984000       1.88471600
H        1.95384500      -1.47882500       1.57834100
H        0.31398400      -1.95291000       1.59027000
H        1.59242000      -0.13688000       3.58161900
H       -0.11090700      -0.68602700       3.57187700
H        1.20344700      -1.84910500       3.88800800
H        0.76356500      -0.38777400       1.31208400
N       -3.97166500       1.14846100      -0.82001100
C       -4.70867200       0.96387900       0.45571300
C       -3.78641400       2.58687000      -1.14031900
C       -4.60068700       0.40700600      -1.93927900
H       -3.15516800       2.66523400      -2.02438200
H       -4.76625200       3.03783000      -1.31169800
H       -3.27890100       3.06135300      -0.30100900
H       -4.79461800      -0.10328000       0.65323400
H       -4.13218200       1.43905500       1.24871800
H       -5.69377200       1.42629100       0.36056200
H       -4.64124800      -0.64616200      -1.66440500
H       -5.60090900       0.80840000      -2.11617300
H       -3.97854300       0.53587200      -2.82540800
H       -3.02348500       0.74280700      -0.70376200
C        3.53072800       2.34772400       0.80715500
N        2.96383000       1.97897500      -0.51195500
C        2.57529800       3.33596500       1.47718500
N        2.23592300       4.40128700       0.53546500
H        3.56547400       1.31119000      -1.02633300
H        2.79576800       2.84097100      -1.03821600
H        3.66084900       1.42496900       1.37631500
H        4.50706200       2.80638100       0.63322300
H        3.06613700       3.73546400       2.36972600
H        1.67755300       2.79839600       1.80624500
H        2.33448600       5.32189300       0.94058100
H        1.28047300       4.28239000       0.20355700
H        2.03490500       1.50163100      -0.36592700
