18
1sa1am1ma-4
N       -1.50219900       2.12560800       0.14048300
H       -2.07976300       2.92893500       0.36303200
H       -0.74754400       2.43238500      -0.47014500
H       -1.02919500       1.80748400       0.98678200
C       -2.57652500      -1.23858800       0.47225200
H       -1.87121800      -1.07000100       1.28637500
H       -3.57309200      -0.89364100       0.75074700
H       -2.60207700      -2.30023400       0.22632400
N       -2.08468100      -0.47091200      -0.69403600
H       -2.66678500      -0.60317400      -1.51719900
H       -2.02365000       0.56432400      -0.45631700
S        1.17815200      -0.24815500       0.09147300
O        0.27031700       0.03581000       1.21133200
O        2.52344900      -0.70308400       0.39478000
O        0.49191300      -1.03559400      -0.97599200
O        1.36248900       1.25936800      -0.58325100
H       -1.08101300      -0.75820700      -0.91308900
H        2.20587000       1.25925700      -1.05366200
18
1sa1am1ma-1
N        2.27802800       1.92371700      -0.16491700
H        1.34232500       1.81464500      -0.56830800
H        2.23330100       2.67339400       0.51812900
H        2.90748100       2.22263300      -0.90254200
C        2.15770400      -1.58497600      -0.50739200
H        1.50850500      -1.16378200      -1.27544600
H        3.19435900      -1.59512500      -0.84635400
H        1.82940300      -2.59710700      -0.27086700
N        2.02521700      -0.72902200       0.69336300
H        2.59123200      -1.06366000       1.46896600
H        2.28764900       0.27093500       0.45819400
S       -1.20841800       0.13029100       0.04521700
O       -0.19600100       0.58744300      -0.92207500
O       -2.23845800       1.07981900       0.43761400
O       -1.97590700      -1.05746400      -0.78189500
O       -0.56014100      -0.56763400       1.19857900
H       -2.86164700      -1.13976800      -0.40513400
H        0.99718700      -0.69714000       0.98733200
18
1sa1am1ma-3
N       -1.46966500       2.24233000       0.00915600
H       -0.44790200       2.14971900      -0.03953900
H       -1.75937700       2.80541100      -0.78444700
H       -1.67970600       2.77389100       0.84846200
C       -3.26232700      -1.15245700      -0.03563900
H       -3.15786900      -2.23748300      -0.03152700
H       -3.85080000      -0.84013600       0.82734600
H       -3.76732200      -0.84006600      -0.94985400
N       -1.93288900      -0.52489500       0.02433600
H       -1.94705600       0.53920400       0.02065400
H       -1.36840100      -0.78040700       0.85004400
S        1.17434900      -0.11634500       0.00907700
O        1.41665000       1.33269400      -0.07298000
O        0.52486100      -0.56979200       1.25162700
O        0.50220400      -0.65529800      -1.20015900
O        2.64006700      -0.81510200       0.07425800
H       -1.29116900      -0.78043200      -0.75096100
H        3.20159000      -0.37549600      -0.57799600
25
2sa1am1ma-1
N       -0.01908000      -2.43693200       0.46716600
H       -0.85487500      -2.29383200      -0.14375200
H       -0.06444900      -3.32787300       0.95234200
H        0.86905800      -2.34011500      -0.07365600
C        0.11163000       3.40553400       0.38349700
H        0.09829600       4.08079100      -0.47144400
H       -0.73282600       3.62173500       1.03724400
H        1.04585800       3.52312300       0.93181300
N        0.00911000       2.01301200      -0.09524400
H       -0.88068100       1.82050400      -0.59610700
H        0.82045000       1.74157700      -0.68471100
S       -2.47441700      -0.23507800      -0.12021100
O       -2.43878100       0.98661600      -0.95176200
O       -2.24243500      -1.49998200      -0.83479000
O       -1.62957100      -0.09979700       1.08726600
O       -4.01009800      -0.38242700       0.37558800
H       -0.03404400      -1.65623400       1.13677500
H       -4.32828500       0.48906300       0.64607600
S        2.45236100      -0.26347200      -0.10701700
O        2.31952900       0.82974300      -1.09124400
O        2.33032200      -1.61166200      -0.70302200
O        3.96159300      -0.16621800       0.47780600
O        1.61049300      -0.07982900       1.08619300
H        4.58028100      -0.29712200      -0.25393300
H        0.02571300       1.33786800       0.68227900
25
2sa1am1ma-3
N        0.01751400      -2.44022700      -0.59437700
H       -0.87230400      -2.20032700      -0.08259900
H        0.49141300      -1.55191000      -0.89002700
H        0.67144200      -2.91166700       0.02943200
C       -0.02321100       3.39241300      -0.42081800
H       -0.95673500       3.58709100      -0.94807000
H        0.07462900       4.07321200       0.42415600
H        0.82123300       3.52404500      -1.09663500
N       -0.02811600       2.00150300       0.07428700
H       -0.13695800       1.32337800      -0.69246400
H       -0.83021800       1.80136900       0.69741900
S        2.63233200      -0.12702500       0.01109000
O        1.55433900      -0.24209000      -1.00357100
O        3.99082700      -0.30034200      -0.46243500
O        2.41013700       1.02715300       0.90746600
O        2.29042800      -1.46833300       0.93437300
H        0.86623300       1.74548600       0.54613700
H        2.98326900      -1.55937600       1.60172100
S       -2.47499200      -0.24424900       0.11726300
O       -2.23993500      -1.60612300       0.65754100
O       -2.33669300       0.81573900       1.13382200
O       -1.72499300       0.01012900      -1.11979000
O       -4.02401600      -0.21578000      -0.35905800
H       -0.19157400      -3.01535000      -1.40539900
H       -4.58514400      -0.32180900       0.42143400
25
2sa1am1ma-6
N       -0.04377300      -2.36101800      -0.40556600
H        0.29258600      -2.30788500       0.56087800
H        0.18969900      -3.26743100      -0.80068200
H       -1.07366700      -2.16373900      -0.46221100
C        0.53471400       3.27764600      -0.10043100
H        1.46412500       3.18236600       0.45943300
H        0.73792200       3.67299400      -1.09538800
H       -0.16350500       3.93265800       0.42010300
N       -0.06185000       1.93284400      -0.23049100
H        0.58688800       1.25234600      -0.67717900
H       -0.29811700       1.50186200       0.67304900
S        2.51752400      -0.28822800       0.16457300
O        2.65766500       1.01801700       0.80959500
O        2.22812200      -1.44715000       1.00377500
O        1.56477900      -0.20368300      -1.00258000
O        3.96123800      -0.64138900      -0.48684800
H        0.49005800      -1.60540400      -0.88880700
H        4.35593100       0.17886200      -0.81133400
S       -2.59125100      -0.16265400       0.00365800
O       -1.54165300      -0.05313800       1.04091700
O       -2.63991100      -1.53236700      -0.56269300
O       -4.01929700       0.05713600       0.73292500
O       -2.55118600       0.92379500      -0.98147000
H       -4.19285300      -0.70331900       1.30404900
H       -0.95642000       1.90238500      -0.74760000
32
3sa1am1ma-5
N        0.29985400       0.05367700      -2.72214300
H        1.04118500      -0.47503400      -2.23507400
H        0.30530500      -0.14493800      -3.71841800
H        0.49843300       1.06107700      -2.53004500
C       -0.74899300       0.15723900       3.46507800
H       -1.28693600       1.08130400       3.67426500
H       -1.40651300      -0.53918000       2.94650200
H       -0.38267100      -0.28384500       4.39153800
N        0.39556700       0.45645800       2.57160600
H        1.04530700       1.13107900       2.97403300
H        0.08157900       0.85109500       1.65055400
S       -2.80324200      -0.45972400      -0.34925700
O       -2.67128800       1.03039300       0.14019400
O       -4.15974700      -0.86128400      -0.12245500
O       -2.21782900      -0.59001700      -1.68295700
O       -1.84821000      -1.22843900       0.66412400
H       -0.61800800      -0.20264200      -2.30984300
H       -1.06417500      -1.63479900       0.19438300
S        0.94597700       2.37103100      -0.26512000
O        1.08145000       2.48482100      -1.72611000
O        0.80748800       3.58516500       0.50530700
O       -0.11511100       1.32883400       0.05718700
O        2.28289000       1.67261300       0.30392000
H       -1.72235000       1.33341600       0.03546500
H        2.41343000       0.80357200      -0.14238000
S        1.64721900      -1.89473600      -0.02149600
O        0.28910700      -2.22582200      -0.47498700
O        2.27565600      -0.83742500      -0.85872100
O        1.78945600      -1.63592400       1.42028300
O        2.45894300      -3.24975700      -0.32637600
H        0.93558700      -0.39118200       2.30837700
H        3.36414400      -3.15466700       0.00264000
32
3sa1am1ma-1
N       -3.09570900       2.37167500       0.69879600
H       -2.74628700       2.38103300       1.65660400
H       -3.84360400       3.04921900       0.57920600
H       -3.43333000       1.39418400       0.49127800
C        0.25686500      -2.29453400       2.74438500
H        0.48359300      -3.32757500       2.48345700
H        1.08041200      -1.87499800       3.32111500
H       -0.66586400      -2.25401800       3.32248000
N        0.08791100      -1.50729300       1.50494000
H       -0.70100900      -1.85070700       0.92707600
H        0.95967900      -1.50174800       0.94953900
S        3.53528800      -0.57987300      -0.44827600
O        2.64712800      -1.27216400       0.48659800
O        4.77063400      -1.18860300      -0.83707600
O        2.70991900      -0.27209100      -1.76711600
O        3.86208100       0.84584400       0.13541200
H        1.80428700       0.04473300      -1.53803700
H        3.02702100       1.34349000       0.34529300
S       -2.98097200      -0.96999000      -0.57704800
O       -3.85357700      -0.19813800       0.33727800
O       -2.25233900      -2.05575400       0.10039100
O       -3.95419800      -1.68483600      -1.64560700
O       -2.15177100      -0.10060900      -1.42989400
H       -4.43350600      -2.39663000      -1.19908300
H       -0.62239300       0.28887000      -1.13490300
S        0.16515300       1.78867600       0.24657500
O        1.56185900       2.13402200       0.50483200
O        0.28859900       0.56468800      -0.82077400
O       -0.55244400       1.20415900       1.40962900
O       -0.63951300       2.83669700      -0.40175400
H       -0.12790900      -0.50993700       1.69287800
H       -2.27023100       2.60389100       0.09525500
32
3sa1am1ma-4
N        0.31799900       0.03208800       2.47525800
H        0.11850900       1.04577300       2.37656500
H       -0.49426700      -0.49319900       2.09736100
H        0.49121300      -0.22010000       3.44380600
C       -4.16471500       0.05532500      -0.77321200
H       -4.88167000       0.87562000      -0.78064500
H       -4.58379600      -0.82627500      -1.25722300
H       -3.87870200      -0.19224000       0.24835500
N       -2.93457800       0.46956200      -1.49189700
H       -2.52871200       1.32454300      -1.04716800
H       -3.11596600       0.67538900      -2.47211200
S        3.06260000      -0.36192300      -0.38072800
O        4.45087400      -0.32955400      -0.73388700
O        2.66491700      -0.20744000       1.02151200
O        2.33732200       0.75842600      -1.22309400
O        2.45289300      -1.70833800      -0.92257100
H        1.40228100       0.90640300      -0.90137300
H        1.59816600      -1.93883100      -0.46116300
S       -0.58922600       2.45862500       0.21380000
O       -0.29300300       2.62413600       1.64537500
O       -1.98270600       2.68537400      -0.18868200
O        0.21486900       3.62931200      -0.55369300
O       -0.08011800       1.16578000      -0.31921600
H        1.08258700       3.74202000      -0.13997400
H       -2.23132400      -0.30173700      -1.44306900
S       -1.15470100      -2.15002300       0.16717700
O       -1.47462800      -1.83223200      -1.23622100
O       -1.80086400      -1.25882600       1.14473100
O       -1.84316300      -3.58083900       0.47974000
O        0.28902600      -2.33927900       0.41731800
H       -1.41069900      -4.25826900      -0.05890000
H        1.15460000      -0.18162600       1.89680200
