20
1sa1tma
S        1.51521600      -0.14201800       0.04364900
O        2.68049200      -0.91691100       0.43562700
O        0.48012300      -0.03394400       1.13108300
O        0.87376400      -0.44059600      -1.24047300
H       -0.87896800      -0.01653100       0.51216000
O        2.04586100       1.39881000      -0.15366900
H        2.81496400       1.50961300       0.42008300
N       -1.87128100       0.01037500       0.06472500
C       -1.85744400       1.11884200      -0.91996100
C       -2.83064500       0.25097300       1.16263700
C       -2.08444100      -1.30128000      -0.59165400
H       -2.58146900       1.19523800       1.64797900
H       -2.74669200      -0.55805800       1.88901500
H       -3.84761300       0.29202500       0.76403200
H       -1.61931000       2.04605600      -0.39728900
H       -2.83770200       1.19510400      -1.39784700
H       -1.07620100       0.90879500      -1.65076100
H       -3.06668000      -1.31393700      -1.07155300
H       -2.02592400      -2.08403600       0.16557000
H       -1.28563500      -1.44468900      -1.31951200
33
1sa2tma
S        0.04067500      -0.84225500      -0.02081300
O       -0.86879800      -1.60462400      -0.87361200
O       -0.83691600      -0.12131000       1.09794000
O        0.70303600       0.28939400      -0.78700900
H       -1.75210900       0.13286900       0.70010300
O        1.05985100      -1.59916700       0.72033400
H        2.07531000       0.40512800      -0.36509900
N        3.13084000       0.50990700      -0.04275900
C        3.10687700       0.66785600       1.42957600
C        3.67124400       1.70275700      -0.72261300
C        3.82984600      -0.73094700      -0.44687200
H        3.07634600       2.57148900      -0.43769000
H        3.59832100       1.55873100      -1.80134400
H        4.71567300       1.85603800      -0.43656800
H        2.52025200       1.55414100       1.67540400
H        4.12852200       0.77537200       1.80529800
H        2.61842100      -0.21087400       1.85179500
H        4.87667100      -0.68275100      -0.13308000
H        3.76762500      -0.82913400      -1.53153500
H        3.31365700      -1.57094800       0.01863100
N       -3.18575700       0.48529200       0.05956200
C       -2.92658200       0.98310700      -1.29190600
C       -3.86877900       1.48368900       0.87449400
C       -3.92516600      -0.77662100       0.02101400
H       -3.26484300       2.39407600       0.91999700
H       -3.99658600       1.10222500       1.89112000
H       -4.86068700       1.73849200       0.46555100
H       -2.30941800       1.88365400      -1.23523800
H       -3.86415300       1.22265800      -1.82018600
H       -2.37458100       0.22381600      -1.84949600
H       -4.91253900      -0.65231100      -0.45335100
H       -4.06673700      -1.14485300       1.04065100
H       -3.33755000      -1.51152600      -0.53296300
27
2sa1tma
S       -2.35653800       0.23684800       0.01636200
O       -1.87906900      -0.24376300      -1.41748700
O       -1.30058700       1.08381500       0.56781400
O       -2.42561500      -1.09487100       0.85736800
O       -3.69259400       0.74150600      -0.11094500
H       -0.90675400      -0.45522600      -1.38180500
H       -1.52411500      -1.51268600       0.92388400
S        1.14883200      -1.59158600       0.05326800
O        1.74165200      -2.78821900      -0.85896200
O        0.71867300      -0.60943600      -0.98739700
O        2.23539500      -1.07372100       0.88175100
O        0.01851300      -2.17346900       0.79697000
H        1.86920700      -3.56558600      -0.29730000
H        0.94937000       1.02994800      -0.26035100
N        1.45015800       1.91040900      -0.02176800
C        1.45598100       2.03614200       1.46162700
C        0.71923700       3.02772100      -0.67228300
C        2.82630100       1.75326700      -0.56113300
H       -0.29781600       3.04320000      -0.28348800
H        0.69871300       2.85223700      -1.74834400
H        1.23859000       3.96318800      -0.45452000
H        0.42414900       2.09403500       1.80397300
H        2.01026900       2.93753300       1.73162200
H        1.93294300       1.14624100       1.87232300
H        3.39824000       2.65640400      -0.33911800
H        2.76332000       1.59815000      -1.63815200
H        3.27603200       0.87799900      -0.09257900
40
2sa2tma
S        0.67101000       1.90806100      -0.08209000
O        1.05322900       0.75958400      -1.00048200
O       -0.69035500       2.36685200      -0.37327000
O        1.72537300       2.90479700       0.00425900
H       -2.31400800       0.07617300       0.35277200
O        0.65070400       1.22642400       1.38049600
H        0.02986700       0.44792200       1.34575900
N       -3.25124800       0.44538600       0.03845300
C       -3.17457000       0.72843000      -1.41892300
C       -3.52009000       1.67468000       0.82509300
C       -4.21398200      -0.64432400       0.33867800
H       -2.72735200       2.39237200       0.61163600
H       -3.51189100       1.41801600       1.88508800
H       -4.49823900       2.07158800       0.54347300
H       -2.39385500       1.47270000      -1.57596100
H       -4.14651700       1.09770000      -1.75509500
H       -2.90917900      -0.19425800      -1.93415700
H       -5.21019900      -0.34460500       0.00580100
H       -4.21074900      -0.82663500       1.41340600
H       -3.88263000      -1.55049600      -0.17040100
S       -0.67102600      -1.90806300       0.08212800
O       -1.72539800      -2.90479600      -0.00413000
O        0.69033500      -2.36682800       0.37336800
O       -1.05323600      -0.75958700       1.00052100
H        2.31392900      -0.07632400      -0.35268100
O       -0.65073800      -1.22640800      -1.38044800
H       -0.02992100      -0.44788800      -1.34569800
N        3.25124900      -0.44542700      -0.03849800
C        4.21389700       0.64419200      -0.33934300
C        3.51989700      -1.67497600      -0.82480500
C        3.17496000      -0.72799600       1.41898900
H        3.51137700      -1.41867300      -1.88488400
H        2.72724900      -2.39262800      -0.61088200
H        4.49814400      -2.07175000      -0.54333500
H        4.21038100       0.82612100      -1.41413300
H        5.21020100       0.34459800      -0.00661500
H        3.88267500       1.55054500       0.16950000
H        4.14699300      -1.09715900       1.75503200
H        2.39427900      -1.47221100       1.57645200
H        2.90970500       0.19486400       1.93398600
34
3sa1tma
S        0.44305100      -0.17256900       1.19760200
O        0.53604400       0.81857000       0.08398200
O        1.61639500      -0.13467900       2.07069400
O        0.43999200      -1.62366300       0.47977200
O       -0.85742200      -0.11073200       1.87409800
H       -1.14446600       1.58124900      -0.26546100
H        1.31633300      -1.72626200       0.02155800
S        3.75034200      -0.29062600      -0.61526700
O        4.06881900       0.01712200       0.90219700
O        4.98894300      -0.31901300      -1.32801500
O        2.94132400       0.98458300      -1.09748500
O        2.84131900      -1.43825600      -0.66684000
H        3.24345800      -0.06096100       1.44478400
H        2.02369700       0.96092600      -0.71752500
N       -1.67062900       2.47549900      -0.24658900
C       -2.14547300       2.74297500      -1.63025300
C       -0.71134500       3.51102100       0.21925000
C       -2.80088500       2.31686200       0.70779300
H        0.13705900       3.53989500      -0.46327800
H       -0.36132900       3.24144100       1.21486600
H       -1.21816200       4.47759000       0.23953500
H       -1.27955700       2.81032800      -2.28903700
H       -2.69854600       3.68414100      -1.63685900
H       -2.77817300       1.91338800      -1.94107300
H       -3.31604600       3.27478000       0.80176500
H       -2.39772000       1.99804900       1.66883900
H       -3.47444000       1.55387200       0.32324600
S       -2.93064400      -1.43629600      -0.51258300
O       -2.29995500      -0.21806400      -1.01212900
O       -1.88803400      -2.61950500      -0.63526800
O       -4.17347000      -1.89051700      -1.05958900
H       -1.00301300      -2.32072700      -0.32232200
O       -3.12716100      -1.26781900       1.05138300
H       -2.30681500      -0.87371200       1.44789600
