1dma_3w_H.log
 OpenBabel02281910173D
Gaussian users/kemi/kmacke/programs/G09D/g09/g09 # opt freq 6-31++g(d,p) wb97xd
 20 16  0  0  0  0  0  0  0  0999 V2000
    1.3027    0.0000   -0.0001 N   0  0  0  0  0  0  0  0  0  0  0  0
    0.6552    0.8133   -0.0004 H   0  0  0  0  0  0  0  0  0  0  0  0
    0.6552   -0.8133   -0.0003 H   0  0  0  0  0  0  0  0  0  0  0  0
    2.1074   -0.0000   -1.2467 C   0  0  0  0  0  0  0  0  0  0  0  0
    2.1064    0.0000    1.2471 C   0  0  0  0  0  0  0  0  0  0  0  0
    2.7340   -0.8921   -1.2700 H   0  0  0  0  0  0  0  0  0  0  0  0
    1.4302   -0.0001   -2.1003 H   0  0  0  0  0  0  0  0  0  0  0  0
    2.7339    0.8920   -1.2700 H   0  0  0  0  0  0  0  0  0  0  0  0
    2.7329   -0.8921    1.2709 H   0  0  0  0  0  0  0  0  0  0  0  0
    2.7329    0.8921    1.2709 H   0  0  0  0  0  0  0  0  0  0  0  0
    1.4284    0.0001    2.1001 H   0  0  0  0  0  0  0  0  0  0  0  0
   -0.8024   -1.7839    0.0000 O   0  0  0  0  0  0  0  0  0  0  0  0
   -0.9551   -2.7324   -0.0001 H   0  0  0  0  0  0  0  0  0  0  0  0
   -1.6666   -1.3399   -0.0002 H   0  0  0  0  0  0  0  0  0  0  0  0
   -0.8024    1.7839   -0.0000 O   0  0  0  0  0  0  0  0  0  0  0  0
   -0.9551    2.7323   -0.0002 H   0  0  0  0  0  0  0  0  0  0  0  0
   -1.6666    1.3399   -0.0002 H   0  0  0  0  0  0  0  0  0  0  0  0
   -3.0263    0.0000   -0.0002 O   0  0  0  0  0  0  0  0  0  0  0  0
   -3.6060   -0.0000    0.7701 H   0  0  0  0  0  0  0  0  0  0  0  0
   -3.6061    0.0000   -0.7703 H   0  0  0  0  0  0  0  0  0  0  0  0
  1  5  1  0  0  0  0
  2  1  1  0  0  0  0
  3  1  1  0  0  0  0
  4  1  1  0  0  0  0
  5 10  1  0  0  0  0
  5  9  1  0  0  0  0
  5 11  1  0  0  0  0
  6  4  1  0  0  0  0
  7  4  1  0  0  0  0
  8  4  1  0  0  0  0
 13 12  1  0  0  0  0
 14 12  1  0  0  0  0
 16 15  1  0  0  0  0
 17 15  1  0  0  0  0
 18 19  1  0  0  0  0
 20 18  1  0  0  0  0
M  END
$$$$
