34
1sa1fa1dma1eda-5
S       -0.29760700       2.01342800       0.01454100
O        0.06687900       1.06462700      -1.08134200
O        0.46232100       1.42209500       1.31697700
O        0.20144600       3.36144300      -0.13140000
O       -1.75753700       1.90244700       0.30393100
H       -2.36409300       0.48080200       0.40579200
H        0.30711800      -2.72818400       2.80563000
H        0.17159000       0.48607300       1.47633100
C        0.55879400      -1.99840800       2.01453300
O       -0.32820100      -1.12302500       1.75027400
O        1.66599900      -2.10548100       1.45843600
N        2.26257800      -0.42182600      -0.59290000
C        2.60275500      -1.25006300      -1.76675000
C        3.32563900       0.50697500      -0.15684600
H        1.40393800       0.14310800      -0.81040400
H        3.43765700      -1.90684300      -1.51590600
H        1.72167100      -1.83795400      -2.03142400
H        2.87647000      -0.59899000      -2.59898200
H        4.21357200      -0.06289600       0.12244900
H        3.55941100       1.19503600      -0.97089300
H        2.95230400       1.07136300       0.69807100
H        2.00902300      -1.05342800       0.21388800
H       -3.44105000      -2.23487200      -0.37743700
H       -3.94650100      -0.68522800      -1.08654200
H       -2.34481500      -1.74552100      -2.57413600
H       -1.62034800      -0.28259500      -1.89888300
H       -0.35340500      -1.62348400      -0.41157300
H       -0.99716400      -3.01113400      -1.00727500
H       -3.48086500      -0.46212900       1.25247800
H       -1.90704100      -0.97895600       1.08548000
C       -3.10365800      -1.23066900      -0.65348800
C       -1.94704100      -1.29807900      -1.65731200
N       -2.70707100      -0.52207600       0.59396900
N       -0.77578700      -2.04672700      -1.23323400
34
1sa1fa1dma1eda-1
S       -0.21322200      -1.06202200      -0.42786200
O        0.22019300       0.01823600       0.53036800
O       -0.93702100      -0.51263300      -1.57735900
O        0.95579200      -1.91262100      -0.75586200
O       -1.19735100      -1.99335700       0.37350300
H       -2.17614800      -1.65622900       0.24790300
H        1.69493400       3.93523800      -0.42627900
H        0.28966100       1.49239200       0.14656700
C        1.60782800       2.86101200      -0.21826300
O        0.37431800       2.49394800      -0.03860400
O        2.60085700       2.14458200      -0.17044600
N        3.04940700      -0.56500100       0.24131200
C        3.07837900      -0.82536500       1.69552400
C        4.32441300      -0.81883600      -0.45506300
H        2.27768200      -1.14761300      -0.18420900
H        3.81972600      -0.17703500       2.16616400
H        2.08316000      -0.61605100       2.08748600
H        3.33177200      -1.87270200       1.86675400
H        5.09640500      -0.15951900      -0.05500200
H        4.61127300      -1.86176500      -0.31224600
H        4.18677900      -0.62013300      -1.51780700
H        2.76294100       0.42426200       0.08926700
H       -5.05223500       0.35748700       0.54899000
H       -4.12875900      -0.40684300       1.86640200
H       -3.44641700       1.93313000       1.43314400
H       -2.10607300       0.79867200       1.22631500
H       -2.59403200       2.59044500      -0.56532500
H       -2.23224400       1.09157000      -1.08140500
H       -4.30742300      -1.87495700      -0.01935500
H       -3.58566200      -0.78102400      -0.99419300
C       -4.06406900      -0.01725200       0.84512800
C       -3.06184500       1.13105900       0.79463100
N       -3.62975200      -1.11849100      -0.03315300
N       -2.92770100       1.63407300      -0.57129100
34
1sa1fa1dma1eda-4
S       -0.80415600       0.67724900      -0.60611000
O       -1.19580000      -0.76195800      -0.49695000
O        0.24244800       0.91317100      -1.60186400
O       -2.08378600       1.45045700      -1.14812400
O       -0.47955200       1.23395300       0.73135400
H       -2.87447900       1.18029600      -0.61294800
H        1.21897100       1.08116900       0.94442400
H       -5.13107500      -0.87509800       1.39193200
H       -2.50102500      -1.19568800       0.32052600
C       -4.23736300      -0.56133700       0.83822400
O       -3.31846700      -1.49102000       0.83044400
O       -4.16448400       0.53742600       0.31176900
N        2.25332000       1.11182700       0.79757500
C        2.96433000       0.90284500       2.06915800
C        2.56943400       2.38205900       0.11460600
H        2.45083300       0.31146200       0.13051100
H        2.68005700       1.68098300       2.77992900
H        2.68231300      -0.08011200       2.44448800
H        4.04153600       0.94334900       1.89352400
H        2.31970000       3.21888200       0.76902400
H        3.63369600       2.40724100      -0.12985900
H        1.96507600       2.43124400      -0.79186000
H        3.00913200      -2.82390800       0.39214300
H        1.48570200      -3.63058100      -0.00427600
H        2.26016600      -2.68465200      -2.02561700
H        0.88240800      -1.71649700      -1.49513300
H        3.66123600      -0.90735200      -1.58968500
H        2.28556400      -0.09605600      -1.98897300
H        0.37927300      -1.58438200       0.83412000
H        1.27088900      -2.30568300       1.99833600
C        1.96557800      -2.64492500       0.10081700
C        1.92101700      -1.96976800      -1.26473600
N        1.33420600      -1.80386400       1.11856000
N        2.70471200      -0.72226200      -1.30532000
