40
2msa1dma1eda-02
S        2.93920400       0.39829300      -0.10003000
O        2.54566000       1.38937600      -1.13887200
O        3.47823900      -0.86602200      -0.62333900
O        1.80495200       0.17409500       0.86110900
C        4.23646200       1.17077000       0.85120600
H        5.06367600       1.38374800       0.17368900
H        3.84753100       2.09163700       1.28580300
H        4.54771600       0.47612700       1.63144000
S       -2.59518200      -0.87706600       0.05166500
O       -3.01083300       0.18237800       0.98590000
O       -2.03058600      -2.08756300       0.70919900
O       -1.68319800      -0.37396300      -1.02640300
C       -4.06875900      -1.42886600      -0.79067400
H       -4.75402700      -1.82761800      -0.04234600
H       -4.51173500      -0.57106300      -1.29715200
H       -3.78895100      -2.19943900      -1.50886600
N        0.66674500      -2.25198100       0.25961900
C        0.77691600      -2.51137300      -1.19488000
C        1.45036700      -3.18439700       1.09339700
H        1.02052800      -1.28761900       0.46137800
H        0.45791400      -3.53608100      -1.39456300
H        0.11518900      -1.81214400      -1.70661200
H        1.81305300      -2.35478800      -1.49682300
H        1.11823800      -4.20694200       0.90640500
H        2.50497800      -3.07200500       0.83728200
H        1.29531200      -2.93224600       2.14251700
H       -0.34458700      -2.25967800       0.52345100
H       -0.16520900       3.91170900      -0.61043000
H       -1.03402000       3.07313800      -1.91833300
H       -2.57059700       4.12336900      -0.15925400
H       -2.81492900       2.38759200      -0.38732900
H       -2.05153600       3.63843900       1.99927900
H       -2.26539700       2.02409600       1.69510500
H        0.84778500       1.75284800      -0.89841300
H       -0.00758500       1.79289100       0.52295600
C       -0.82767300       3.07494300      -0.84578300
C       -2.11191200       3.13969700      -0.01396300
N       -0.11157200       1.82993800      -0.49858500
N       -1.80150500       2.87458000       1.38698500
H       -0.66963600       0.98556300      -0.75805700
40
2msa1dma1eda-01
S       -2.71419000      -0.53908800       0.20921300
O       -2.57905800       0.65870100       1.08467300
O       -2.76748000      -1.82305000       0.92332900
O       -1.66331100      -0.52983400      -0.86250000
C       -4.27374200      -0.34019500      -0.63635100
H       -5.06211700      -0.33224200       0.11647000
H       -4.25503300       0.60231500      -1.18380200
H       -4.40270100      -1.18034100      -1.31892800
S        2.90388300      -0.04354800      -0.06627500
O        2.91407500       1.18764100      -0.86719600
O        2.72537000      -1.29738600      -0.85369200
O        1.91733400       0.01185100       1.06401500
C        4.50766100      -0.19001500       0.70374100
H        5.25367300      -0.26655500      -0.08757200
H        4.67863100       0.70252600       1.30593300
H        4.51328300      -1.08444700       1.32680100
N        0.27859900      -2.39531400      -0.32632800
C        0.29868000      -2.77053200       1.10658500
C       -0.11180300      -3.49525200      -1.22852000
H       -0.40805700      -1.61921500      -0.46958800
H        0.95223100      -3.63559700       1.23479700
H        0.69640400      -1.92151500       1.66244900
H       -0.72107000      -2.99108600       1.42378000
H        0.61180800      -4.30775000      -1.14438400
H       -1.10703300      -3.84327300      -0.94776100
H       -0.12830600      -3.11953900      -2.25166000
H        1.21868700      -2.01532200      -0.59041100
H        0.91249800       2.44168500      -0.96751300
H       -0.55212200       1.47630700      -1.25456900
H       -0.96796900       3.90087300      -1.78625800
H       -1.98696600       3.33146200      -0.45622800
H        0.42156200       4.97544900      -0.15572900
H       -1.08985500       5.27326300       0.40012100
H        0.66869900       1.14246900       0.91970000
H        0.03516300       2.66070200       1.34080800
C       -0.12392900       2.28367000      -0.65878600
C       -0.95443900       3.55642700      -0.74370300
N       -0.10388000       1.83045900       0.75637000
N       -0.42135000       4.53853500       0.20303900
H       -1.02008500       1.38823400       0.99813400
40
2msa1dma1eda-04
S        2.65997000      -0.70325700      -0.03019600
O        2.58182400      -1.96307700       0.72833100
O        3.08303300       0.48799000       0.71851600
O        1.35448600      -0.45635900      -0.76783200
C        3.86615200      -0.95299300      -1.32548700
H        4.82865000      -1.14055500      -0.84864100
H        3.56122600      -1.81034700      -1.92585300
H        3.91139900      -0.05056700      -1.93567800
S       -2.94082900       0.10929600      -0.20892000
O       -2.19504600       0.30136800       1.05565600
O       -2.86948700      -1.29632600      -0.69894300
O       -2.55171000       1.10535400      -1.24725800
C       -4.66561900       0.41263400       0.12932600
H       -4.99704500      -0.30824300       0.87682200
H       -4.76636000       1.43130000       0.50414900
H       -5.21988500       0.28654500      -0.80076300
N       -0.47470600      -2.31780700       0.18003000
C       -0.05617400      -3.58087200      -0.45962000
C       -0.47286000      -2.36138900       1.65997200
H        0.18273700      -1.57129300      -0.13599200
H       -0.73051300      -4.38174700      -0.15190800
H       -0.10427600      -3.45505700      -1.54158900
H        0.96809900      -3.79854100      -0.15382300
H       -1.12225400      -3.17468000       1.98957000
H        0.55232700      -2.51638300       1.99755100
H       -0.86519800      -1.40966200       2.01895500
H       -1.41977800      -2.02581200      -0.16047000
H       -0.82165500       3.26217300       0.70323000
H       -0.19431500       1.76500800       1.40062800
H        1.33383600       3.72990200       1.87232800
H        2.12967600       2.46669000       0.91927500
H        1.18736100       5.04826700      -0.09051400
H        2.61224600       4.28731700      -0.35080000
H       -0.96378300       1.66747000      -0.97659600
H        0.41383700       2.62023100      -1.32188000
C        0.00645000       2.54849200       0.67034500
C        1.34954000       3.23259900       0.89419100
N        0.00452200       1.93360400      -0.67973700
N        1.61823900       4.14015500      -0.22607400
H        0.59129200       1.06728800      -0.70179200
