1sa_1dma_H.log
 OpenBabel02281910153D
Gaussian users/kemi/kmacke/programs/G09D/g09/g09 # opt=(maxcycle=10000) freq wb9
 18 16  0  0  0  0  0  0  0  0999 V2000
   -1.4271   -0.1089   -0.7222 H   0  0  0  0  0  0  0  0  0  0  0  0
    1.2911   -0.0192    0.0039 S   0  0  0  0  0  0  0  0  0  0  0  0
    2.2445    1.2447    0.0266 O   0  0  0  0  0  0  0  0  0  0  0  0
    0.5926   -0.0113    1.2681 O   0  0  0  0  0  0  0  0  0  0  0  0
    2.2952   -1.2398   -0.0806 O   0  0  0  0  0  0  0  0  0  0  0  0
    0.5257   -0.0570   -1.2236 O   0  0  0  0  0  0  0  0  0  0  0  0
    2.6669    1.3909   -0.8367 H   0  0  0  0  0  0  0  0  0  0  0  0
    2.7655   -1.3763    0.7593 H   0  0  0  0  0  0  0  0  0  0  0  0
   -2.1152   -0.0432    0.0417 N   0  0  0  0  0  0  0  0  0  0  0  0
   -1.5434   -0.1311    0.8906 H   0  0  0  0  0  0  0  0  0  0  0  0
   -3.0806   -1.1755   -0.0471 C   0  0  0  0  0  0  0  0  0  0  0  0
   -3.6268   -1.0946   -0.9865 H   0  0  0  0  0  0  0  0  0  0  0  0
   -3.7714   -1.1174    0.7936 H   0  0  0  0  0  0  0  0  0  0  0  0
   -2.5286   -2.1143   -0.0158 H   0  0  0  0  0  0  0  0  0  0  0  0
   -2.7469    1.3076    0.0157 C   0  0  0  0  0  0  0  0  0  0  0  0
   -3.4413    1.3875    0.8516 H   0  0  0  0  0  0  0  0  0  0  0  0
   -3.2791    1.4266   -0.9276 H   0  0  0  0  0  0  0  0  0  0  0  0
   -1.9654    2.0617    0.1033 H   0  0  0  0  0  0  0  0  0  0  0  0
  1  9  1  0  0  0  0
  2  3  1  0  0  0  0
  2  4  2  0  0  0  0
  5  2  1  0  0  0  0
  5  8  1  0  0  0  0
  6  2  2  0  0  0  0
  7  3  1  0  0  0  0
  9 10  1  0  0  0  0
 11 14  1  0  0  0  0
 11  9  1  0  0  0  0
 11 13  1  0  0  0  0
 12 11  1  0  0  0  0
 15  9  1  0  0  0  0
 15 18  1  0  0  0  0
 15 16  1  0  0  0  0
 17 15  1  0  0  0  0
M  END
$$$$
