1sa_2dma_H.log
 OpenBabel02281910153D
Gaussian users/kemi/kmacke/programs/G09D/g09/g09 # opt freq 6-31++g(d,p) wb97xd
 28 25  0  0  0  0  0  0  0  0999 V2000
    0.0970   -0.2233   -0.0820 S   0  0  0  0  0  0  0  0  0  0  0  0
   -0.8796    0.8765   -0.0430 O   0  0  0  0  0  0  0  0  0  0  0  0
    0.9269   -0.2803   -1.2934 O   0  0  0  0  0  0  0  0  0  0  0  0
    0.8879   -0.3903    1.1493 O   0  0  0  0  0  0  0  0  0  0  0  0
    3.3576    0.1506    0.0159 N   0  0  0  0  0  0  0  0  0  0  0  0
    2.7986   -0.0342   -0.8333 H   0  0  0  0  0  0  0  0  0  0  0  0
    2.6835   -0.1265    0.7546 H   0  0  0  0  0  0  0  0  0  0  0  0
    4.5760   -0.6935    0.0532 C   0  0  0  0  0  0  0  0  0  0  0  0
    3.6103    1.6109    0.1219 C   0  0  0  0  0  0  0  0  0  0  0  0
    5.2322   -0.4109   -0.7701 H   0  0  0  0  0  0  0  0  0  0  0  0
    5.0859   -0.5384    1.0041 H   0  0  0  0  0  0  0  0  0  0  0  0
    4.2857   -1.7390   -0.0456 H   0  0  0  0  0  0  0  0  0  0  0  0
    4.2457    1.9247   -0.7063 H   0  0  0  0  0  0  0  0  0  0  0  0
    4.1028    1.8170    1.0721 H   0  0  0  0  0  0  0  0  0  0  0  0
    2.6535    2.1306    0.0771 H   0  0  0  0  0  0  0  0  0  0  0  0
   -3.4202    0.0213   -0.0055 N   0  0  0  0  0  0  0  0  0  0  0  0
   -3.2083   -0.9652   -0.1723 H   0  0  0  0  0  0  0  0  0  0  0  0
   -2.4732    0.4770   -0.0537 H   0  0  0  0  0  0  0  0  0  0  0  0
   -3.9602    0.1883    1.3682 C   0  0  0  0  0  0  0  0  0  0  0  0
   -4.2973    0.5454   -1.0824 C   0  0  0  0  0  0  0  0  0  0  0  0
   -5.2563    0.0273   -1.0551 H   0  0  0  0  0  0  0  0  0  0  0  0
   -3.8086    0.3850   -2.0430 H   0  0  0  0  0  0  0  0  0  0  0  0
   -4.4466    1.6127   -0.9203 H   0  0  0  0  0  0  0  0  0  0  0  0
   -4.9083   -0.3431    1.4555 H   0  0  0  0  0  0  0  0  0  0  0  0
   -3.2347   -0.2089    2.0775 H   0  0  0  0  0  0  0  0  0  0  0  0
   -4.1101    1.2517    1.5541 H   0  0  0  0  0  0  0  0  0  0  0  0
   -0.9241   -1.5136   -0.1521 O   0  0  0  0  0  0  0  0  0  0  0  0
   -0.4166   -2.3351   -0.2073 H   0  0  0  0  0  0  0  0  0  0  0  0
  1  2  2  0  0  0  0
  1  4  1  0  0  0  0
  3  1  2  0  0  0  0
  5  8  1  0  0  0  0
  5  9  1  0  0  0  0
  5  7  1  0  0  0  0
  6  5  1  0  0  0  0
  8 11  1  0  0  0  0
  9 14  1  0  0  0  0
 10  8  1  0  0  0  0
 12  8  1  0  0  0  0
 13  9  1  0  0  0  0
 15  9  1  0  0  0  0
 16 19  1  0  0  0  0
 17 16  1  0  0  0  0
 18 16  1  0  0  0  0
 19 24  1  0  0  0  0
 19 26  1  0  0  0  0
 19 25  1  0  0  0  0
 20 21  1  0  0  0  0
 20 23  1  0  0  0  0
 20 16  1  0  0  0  0
 22 20  1  0  0  0  0
 27  1  1  0  0  0  0
 28 27  1  0  0  0  0
M  RAD  1   4   2
M  END
$$$$
