2sa_2dma_H.log
 OpenBabel02281910153D
Gaussian users/kemi/kmacke/programs/G09D/g09/g09 # opt freq 6-31++g(d,p) wb97xd
 35 31  0  0  0  0  0  0  0  0999 V2000
    0.5941    2.0710   -0.2652 S   0  0  0  0  0  0  0  0  0  0  0  0
   -3.9284    0.2883   -0.3767 C   0  0  0  0  0  0  0  0  0  0  0  0
   -4.6723   -0.4374   -0.0478 H   0  0  0  0  0  0  0  0  0  0  0  0
   -4.4062    1.2461   -0.5840 H   0  0  0  0  0  0  0  0  0  0  0  0
   -3.4121   -0.0794   -1.2629 H   0  0  0  0  0  0  0  0  0  0  0  0
   -0.8307    2.3019   -0.0877 O   0  0  0  0  0  0  0  0  0  0  0  0
    1.3718    1.6550    0.8856 O   0  0  0  0  0  0  0  0  0  0  0  0
   -2.9249    0.4696    0.7037 N   0  0  0  0  0  0  0  0  0  0  0  0
   -3.4847    0.9691    1.9834 C   0  0  0  0  0  0  0  0  0  0  0  0
   -2.4378   -0.4370    0.8590 H   0  0  0  0  0  0  0  0  0  0  0  0
   -2.1907    1.1146    0.3754 H   0  0  0  0  0  0  0  0  0  0  0  0
   -3.9511    1.9402    1.8162 H   0  0  0  0  0  0  0  0  0  0  0  0
   -2.6770    1.0653    2.7084 H   0  0  0  0  0  0  0  0  0  0  0  0
   -4.2258    0.2573    2.3473 H   0  0  0  0  0  0  0  0  0  0  0  0
    3.8790   -0.5837   -0.4577 C   0  0  0  0  0  0  0  0  0  0  0  0
    3.3270   -0.1754   -1.3040 H   0  0  0  0  0  0  0  0  0  0  0  0
    4.2695   -1.5698   -0.7086 H   0  0  0  0  0  0  0  0  0  0  0  0
    4.6957    0.0852   -0.1853 H   0  0  0  0  0  0  0  0  0  0  0  0
    2.9495   -0.7123    0.6936 N   0  0  0  0  0  0  0  0  0  0  0  0
    3.5674   -1.2612    1.9261 C   0  0  0  0  0  0  0  0  0  0  0  0
    2.1451   -1.3097    0.4107 H   0  0  0  0  0  0  0  0  0  0  0  0
    2.5297    0.2088    0.8891 H   0  0  0  0  0  0  0  0  0  0  0  0
    2.8048   -1.3264    2.7014 H   0  0  0  0  0  0  0  0  0  0  0  0
    3.9619   -2.2545    1.7122 H   0  0  0  0  0  0  0  0  0  0  0  0
    4.3729   -0.6012    2.2488 H   0  0  0  0  0  0  0  0  0  0  0  0
   -0.6173   -1.9110   -0.3720 S   0  0  0  0  0  0  0  0  0  0  0  0
   -1.1921   -3.0729   -1.3132 O   0  0  0  0  0  0  0  0  0  0  0  0
   -0.8602   -0.7043   -1.2105 O   0  0  0  0  0  0  0  0  0  0  0  0
    0.8072   -2.1983   -0.1537 O   0  0  0  0  0  0  0  0  0  0  0  0
   -1.4239   -1.8834    0.8572 O   0  0  0  0  0  0  0  0  0  0  0  0
   -1.0837   -3.9331   -0.8806 H   0  0  0  0  0  0  0  0  0  0  0  0
    0.8365    1.1055   -1.4662 O   0  0  0  0  0  0  0  0  0  0  0  0
    0.1575    0.3205   -1.4380 H   0  0  0  0  0  0  0  0  0  0  0  0
    1.2937    3.3889   -0.7870 O   0  0  0  0  0  0  0  0  0  0  0  0
    0.7731    3.8104   -1.4892 H   0  0  0  0  0  0  0  0  0  0  0  0
  1  6  2  0  0  0  0
  1  7  2  0  0  0  0
  2  3  1  0  0  0  0
  2  8  1  0  0  0  0
  4  2  1  0  0  0  0
  5  2  1  0  0  0  0
  8 10  1  0  0  0  0
  8  9  1  0  0  0  0
  9 14  1  0  0  0  0
  9 13  1  0  0  0  0
 11  8  1  0  0  0  0
 12  9  1  0  0  0  0
 15 18  1  0  0  0  0
 15 19  1  0  0  0  0
 16 15  1  0  0  0  0
 17 15  1  0  0  0  0
 19 22  1  0  0  0  0
 19 20  1  0  0  0  0
 20 25  1  0  0  0  0
 20 23  1  0  0  0  0
 21 19  1  0  0  0  0
 24 20  1  0  0  0  0
 26 29  2  0  0  0  0
 26 30  1  0  0  0  0
 27 31  1  0  0  0  0
 27 26  1  0  0  0  0
 28 26  2  0  0  0  0
 32 33  1  0  0  0  0
 32  1  1  0  0  0  0
 34  1  1  0  0  0  0
 35 34  1  0  0  0  0
M  RAD  1  30   2
M  END
$$$$
