48
2msa1fa1tma1eda-3
S       -2.45916000      -1.25402000      -0.03857900
O       -2.21541800      -2.70014600      -0.10896700
O       -1.67629200      -0.48191400      -1.05906900
O       -2.24223600      -0.66332500       1.31909500
C       -4.17717900      -0.96185200      -0.40859200
H       -4.38864900      -1.41494500      -1.37774500
H       -4.77479600      -1.43078900       0.37325800
H       -4.33872900       0.11726700      -0.44580700
S        2.56271100       1.21116600      -0.42557400
O        1.68861500       2.34635700      -0.81144000
O        3.25907500       0.55730700      -1.54499300
O        1.81473400       0.22177200       0.42709600
C        3.80895100       1.89994100       0.65129100
H        4.36232100       2.65142500       0.08742600
H        3.30816700       2.35190000       1.50796400
H        4.47299700       1.09620700       0.97058100
H        1.47206100      -0.19853500       3.60058600
H       -0.88205100      -0.92481100       2.14541800
C        0.53730500       0.00385100       3.06267400
O       -0.01645600      -1.10106100       2.62865100
O        0.10217000       1.13366500       2.92189600
N        1.68444100      -2.21720800      -0.69517400
C        3.12847700      -2.53322300      -0.81948800
H        3.61616800      -1.70280500      -1.33148600
H        3.54853500      -2.64908000       0.18073900
H        3.24080000      -3.46482900      -1.37880400
C        0.96873600      -3.22732800       0.12493100
H        1.36826000      -3.19870300       1.13892800
H       -0.09926800      -3.00309100       0.13636400
H        1.12973000      -4.21278900      -0.31919400
C        1.05212600      -2.02344300      -2.02770400
H        0.02305500      -1.69185100      -1.87686300
H        1.61850800      -1.25656400      -2.55833900
H        1.07888900      -2.97145900      -2.57006200
H        1.63543500      -1.28279200      -0.20665300
H       -2.69576200       2.46645100       0.85146600
H       -1.43909600       3.72710700       0.79844600
H       -2.84961100       4.10902700      -1.08335500
H       -1.34740800       3.42900200      -1.71605100
H       -3.44440500       2.43708200      -2.61555600
H       -2.55547100       1.28295400      -1.86241300
H       -0.55145000       1.53784700       1.29196600
H       -1.07847500       0.94077800      -0.16917000
C       -1.83906400       2.84648400       0.29068800
C       -2.25263400       3.19294500      -1.13285700
N       -0.78281300       1.80771800       0.31981000
N       -3.08189300       2.14271300      -1.71597800
H        0.10143700       2.12360500      -0.12960300
48
2msa1fa1tma1eda-1
S       -2.27510500       1.15607500      -0.46203000
O       -2.46406500      -0.06200000      -1.29018000
O       -2.32772700       2.42231400      -1.20741700
O       -1.03478900       1.04392500       0.37936300
C       -3.62642700       1.15917300       0.70550300
H       -3.52721200       2.03438900       1.34825300
H       -4.55957300       1.20324500       0.14303700
H       -3.56923700       0.24094500       1.29202200
S        2.83682600      -1.06375600      -0.43059700
O        3.23147800       0.34738600      -0.59918900
O        1.96701600      -1.57558700      -1.52241800
O        2.23801800      -1.34947500       0.91100600
C        4.33429500      -2.03103300      -0.49047600
H        4.99605000      -1.68149600       0.30216700
H        4.07356300      -3.07883500      -0.34211100
H        4.79190800      -1.88132300      -1.46864800
H       -0.80811100       0.38644000       3.47600500
H        1.43523900      -0.38932100       1.88001200
C       -0.26527900      -0.25955100       2.77350100
O        0.93249800       0.20567300       2.52101800
O       -0.75501700      -1.28058200       2.32306700
N        0.81210900       2.92080800      -0.12950000
C        0.02549600       4.16760000       0.03538500
H       -0.89561200       4.06997600      -0.54101800
H       -0.21199100       4.29297300       1.09279600
H        0.62304700       5.01325700      -0.31275200
C        2.00683200       2.89569700       0.75228800
H        1.67449400       2.93998200       1.78973800
H        2.55560900       1.97122800       0.56844600
H        2.63240800       3.75992500       0.51528000
C        1.15980200       2.68000700      -1.55640800
H        1.71645300       1.74389000      -1.62111200
H        0.22932000       2.62393200      -2.12328800
H        1.77717700       3.50828400      -1.91220900
H        0.16681600       2.13226100       0.14349800
H       -0.96006300      -3.74821800      -1.45406200
H       -0.32163300      -3.90410500       0.20308100
H       -2.63896100      -4.53106000       0.25594000
H       -2.49508700      -2.96856700       1.06820000
H       -4.34523500      -3.23536000      -0.64189900
H       -3.36905600      -1.96331200      -0.99104000
H        0.37921800      -1.84621500      -0.90922400
H       -1.21973700      -1.31315000      -0.94292600
C       -1.01628900      -3.35549000      -0.43685200
C       -2.44139000      -3.46774600       0.08775500
N       -0.55616400      -1.94529200      -0.45942100
N       -3.39967600      -2.97624400      -0.89573600
H       -0.47275200      -1.59694100       0.51027900
48
2msa1fa1tma1eda-2
S       -2.61350100      -0.52047900      -1.12980500
O       -3.37563000       0.67004800      -0.72020500
O       -2.71833700      -1.65421200      -0.16111600
O       -1.18825600      -0.22036100      -1.45946500
C       -3.33956600      -1.12369600      -2.64306500
H       -4.38815800      -1.34763700      -2.44641800
H       -3.24684700      -0.34209300      -3.39733100
H       -2.80387200      -2.02232200      -2.94920500
S        3.38525600       0.69077200      -0.25114500
O        2.88042500       1.82095000      -1.03916300
O        3.88009100      -0.47431000      -1.00694600
O        2.35431300       0.24614900       0.77863600
C        4.75478400       1.29409000       0.72343500
H        5.53235200       1.61873600       0.03139100
H        4.40683700       2.13172500       1.32807900
H        5.11696300       0.48372000       1.35605800
H       -2.56178000      -0.16471100       3.96007600
H       -3.05224000      -1.29356200       1.38449300
C       -2.31763600      -0.39919400       2.91456400
O       -3.25934400      -1.11106700       2.35122700
O       -1.27950200      -0.03394600       2.39084400
N        1.49802400      -2.23747000       0.15101900
C        2.68289600      -3.02652900       0.56578300
H        3.54696000      -2.64813300       0.01866400
H        2.83558100      -2.89024700       1.63711500
H        2.50608000      -4.08130200       0.34343500
C        0.28590300      -2.59079000       0.93167200
H        0.47042800      -2.37158200       1.98373600
H       -0.56149800      -2.00400100       0.57590300
H        0.07848900      -3.65473000       0.79496600
C        1.26382100      -2.33469300      -1.31496600
H        0.41150100      -1.70147900      -1.56902000
H        2.16349100      -1.98285900      -1.82070800
H        1.05402200      -3.37811500      -1.56316500
H        1.74613500      -1.23507500       0.36769100
H        0.35088200       3.57959800       0.74235100
H        0.64352700       3.04984600      -0.92969500
H       -1.45157000       4.47947100      -0.65693400
H       -1.78366000       2.88583400      -1.34092800
H       -2.92930100       3.90751700       0.94423200
H       -2.98119300       2.34027300       0.43671300
H        0.87997000       1.20940800       0.61139800
H       -0.67987600       1.45445200       1.17771600
C       -0.04198100       2.98125100      -0.08318700
C       -1.46582700       3.40858300      -0.43038900
N       -0.06147800       1.57053000       0.36522200
N       -2.36454000       3.11089700       0.68328200
H       -0.43979300       0.94474600      -0.37565300
