3sa_3a.log
 OpenBabel02271919093D
Gaussian 09 # opt freq wB97XD/6-31++G(d,p)
 33 27  0  0  0  0  0  0  0  0999 V2000
    2.7286   -1.2583    0.0437 S   0  0  0  0  0  0  0  0  0  0  0  0
    1.6451   -2.2510    0.1186 O   0  0  0  0  0  0  0  0  0  0  0  0
    4.1163   -2.0803    0.1988 O   0  0  0  0  0  0  0  0  0  0  0  0
    2.8824   -0.6036   -1.2637 O   0  0  0  0  0  0  0  0  0  0  0  0
    4.0325   -2.6898    0.9449 H   0  0  0  0  0  0  0  0  0  0  0  0
   -2.9450   -1.0040   -0.0420 S   0  0  0  0  0  0  0  0  0  0  0  0
   -3.1235    0.4117    0.2889 O   0  0  0  0  0  0  0  0  0  0  0  0
   -4.3208   -1.6677    0.4923 O   0  0  0  0  0  0  0  0  0  0  0  0
   -2.8726   -1.3215   -1.4837 O   0  0  0  0  0  0  0  0  0  0  0  0
   -4.3552   -2.5830    0.1827 H   0  0  0  0  0  0  0  0  0  0  0  0
   -0.3227    2.2892   -0.0038 S   0  0  0  0  0  0  0  0  0  0  0  0
    0.2095    0.9456   -0.3820 O   0  0  0  0  0  0  0  0  0  0  0  0
   -0.5392    2.3583    1.4536 O   0  0  0  0  0  0  0  0  0  0  0  0
   -1.7173    2.4709   -0.7314 O   0  0  0  0  0  0  0  0  0  0  0  0
    0.5317    3.3620   -0.5466 O   0  0  0  0  0  0  0  0  0  0  0  0
    2.0673    2.6682   -0.5536 H   0  0  0  0  0  0  0  0  0  0  0  0
    2.6873   -0.2989    1.1794 O   0  0  0  0  0  0  0  0  0  0  0  0
   -0.0410   -0.2447    2.2219 N   0  0  0  0  0  0  0  0  0  0  0  0
    2.9201    2.0567   -0.4502 N   0  0  0  0  0  0  0  0  0  0  0  0
   -0.1423   -1.2873   -1.8610 N   0  0  0  0  0  0  0  0  0  0  0  0
    3.7813    2.5813   -0.5732 H   0  0  0  0  0  0  0  0  0  0  0  0
    2.9012    1.5948    0.4697 H   0  0  0  0  0  0  0  0  0  0  0  0
    2.8734    1.2563   -1.1049 H   0  0  0  0  0  0  0  0  0  0  0  0
   -2.3367    1.7691   -0.4006 H   0  0  0  0  0  0  0  0  0  0  0  0
    0.3152   -1.9115   -1.1780 H   0  0  0  0  0  0  0  0  0  0  0  0
    0.3126   -1.3753   -2.7647 H   0  0  0  0  0  0  0  0  0  0  0  0
   -1.1662   -1.4681   -1.9063 H   0  0  0  0  0  0  0  0  0  0  0  0
   -0.0171   -0.3232   -1.4823 H   0  0  0  0  0  0  0  0  0  0  0  0
    0.9256   -0.3493    1.8723 H   0  0  0  0  0  0  0  0  0  0  0  0
   -0.6918   -0.8213    1.6417 H   0  0  0  0  0  0  0  0  0  0  0  0
   -0.3116    0.7562    2.1006 H   0  0  0  0  0  0  0  0  0  0  0  0
   -0.1012   -0.5258    3.1958 H   0  0  0  0  0  0  0  0  0  0  0  0
   -1.8442   -1.6608    0.7029 O   0  0  0  0  0  0  0  0  0  0  0  0
  1  2  2  0  0  0  0
  1  3  1  0  0  0  0
  1 17  1  0  0  0  0
  3  5  1  0  0  0  0
  4  1  2  0  0  0  0
  6  7  2  0  0  0  0
  6  8  1  0  0  0  0
  6 33  1  0  0  0  0
  9  6  2  0  0  0  0
 10  8  1  0  0  0  0
 11 13  1  0  0  0  0
 12 11  2  0  0  0  0
 14 24  1  0  0  0  0
 14 11  1  0  0  0  0
 15 11  2  0  0  0  0
 16 19  1  0  0  0  0
 18 32  1  0  0  0  0
 19 22  1  0  0  0  0
 20 28  1  0  0  0  0
 20 25  1  0  0  0  0
 21 19  1  0  0  0  0
 23 19  1  0  0  0  0
 26 20  1  0  0  0  0
 27 20  1  0  0  0  0
 29 18  1  0  0  0  0
 30 18  1  0  0  0  0
 31 18  1  0  0  0  0
M  RAD  3  13   2  17   2  33   2
M  END
$$$$
