4sa_5a.log
 OpenBabel02271919093D
Gaussian users/kemi/kmacke/programs/G09D/g09/g09 # opt freq 6-31++g(d,p) wb97xd
 48 39  0  0  0  0  0  0  0  0999 V2000
    0.8030   -0.2845    2.3126 S   0  0  0  0  0  0  0  0  0  0  0  0
    0.5953   -1.7400    2.5358 O   0  0  0  0  0  0  0  0  0  0  0  0
    1.6929    0.3516    3.2950 O   0  0  0  0  0  0  0  0  0  0  0  0
    1.2302    0.0021    0.9247 O   0  0  0  0  0  0  0  0  0  0  0  0
    3.8186    0.1213   -1.2947 S   0  0  0  0  0  0  0  0  0  0  0  0
    2.9559    1.2875   -1.5767 O   0  0  0  0  0  0  0  0  0  0  0  0
    3.1546   -1.1742   -1.4608 O   0  0  0  0  0  0  0  0  0  0  0  0
    4.5664    0.2942   -0.0270 O   0  0  0  0  0  0  0  0  0  0  0  0
   -2.1038   -1.9744   -0.9194 S   0  0  0  0  0  0  0  0  0  0  0  0
   -3.2683   -1.7623   -1.8302 O   0  0  0  0  0  0  0  0  0  0  0  0
   -2.2698   -3.1961   -0.0742 O   0  0  0  0  0  0  0  0  0  0  0  0
   -0.8302   -2.0797   -1.7197 O   0  0  0  0  0  0  0  0  0  0  0  0
   -1.9613   -0.7804    0.0046 O   0  0  0  0  0  0  0  0  0  0  0  0
   -2.1152   -2.2369    2.4044 N   0  0  0  0  0  0  0  0  0  0  0  0
   -1.1051   -2.2413    2.6444 H   0  0  0  0  0  0  0  0  0  0  0  0
   -2.2561   -2.7562    1.4862 H   0  0  0  0  0  0  0  0  0  0  0  0
   -2.3245   -1.2551    2.2032 H   0  0  0  0  0  0  0  0  0  0  0  0
   -2.6898   -2.5955    3.1603 H   0  0  0  0  0  0  0  0  0  0  0  0
   -4.0395    0.6998   -2.3140 N   0  0  0  0  0  0  0  0  0  0  0  0
   -4.3842    0.8040   -3.2642 H   0  0  0  0  0  0  0  0  0  0  0  0
   -3.2419    1.3595   -2.1242 H   0  0  0  0  0  0  0  0  0  0  0  0
   -3.7143   -0.3129   -2.1375 H   0  0  0  0  0  0  0  0  0  0  0  0
   -4.7755    0.9298   -1.6484 H   0  0  0  0  0  0  0  0  0  0  0  0
    0.2247    0.5351   -1.5998 N   0  0  0  0  0  0  0  0  0  0  0  0
    0.3361    0.4187   -0.5797 H   0  0  0  0  0  0  0  0  0  0  0  0
   -0.0786   -0.3834   -1.9607 H   0  0  0  0  0  0  0  0  0  0  0  0
   -0.5120    1.2464   -1.7440 H   0  0  0  0  0  0  0  0  0  0  0  0
    1.1416    0.8282   -1.9600 H   0  0  0  0  0  0  0  0  0  0  0  0
    3.0992    1.9754    1.5159 N   0  0  0  0  0  0  0  0  0  0  0  0
    3.7543    1.3301    1.0006 H   0  0  0  0  0  0  0  0  0  0  0  0
    3.5631    2.8375    1.7870 H   0  0  0  0  0  0  0  0  0  0  0  0
    2.3310    2.1672    0.8692 H   0  0  0  0  0  0  0  0  0  0  0  0
    2.6964    1.4751    2.3367 H   0  0  0  0  0  0  0  0  0  0  0  0
   -2.1816    2.5342   -0.0121 S   0  0  0  0  0  0  0  0  0  0  0  0
   -2.8156    3.7973    0.2845 O   0  0  0  0  0  0  0  0  0  0  0  0
   -1.9774    2.2716   -1.4831 O   0  0  0  0  0  0  0  0  0  0  0  0
   -3.2316    1.3968    0.4388 O   0  0  0  0  0  0  0  0  0  0  0  0
   -0.9202    2.2392    0.7198 O   0  0  0  0  0  0  0  0  0  0  0  0
   -2.8031    0.5004    0.2707 H   0  0  0  0  0  0  0  0  0  0  0  0
    4.9423    0.0741   -2.4615 O   0  0  0  0  0  0  0  0  0  0  0  0
    5.4906    0.8669   -2.3906 H   0  0  0  0  0  0  0  0  0  0  0  0
    1.2860   -2.7371   -0.1572 N   0  0  0  0  0  0  0  0  0  0  0  0
    1.5717   -3.7086   -0.2409 H   0  0  0  0  0  0  0  0  0  0  0  0
    0.4336   -2.5608   -0.7573 H   0  0  0  0  0  0  0  0  0  0  0  0
    1.0684   -2.5074    0.8242 H   0  0  0  0  0  0  0  0  0  0  0  0
    2.0467   -2.1137   -0.4937 H   0  0  0  0  0  0  0  0  0  0  0  0
   -0.6536    0.3396    2.4972 O   0  0  0  0  0  0  0  0  0  0  0  0
   -0.7911    1.1006    1.8522 H   0  0  0  0  0  0  0  0  0  0  0  0
  1 47  1  0  0  0  0
  1  2  2  0  0  0  0
  1  3  1  0  0  0  0
  4  1  2  0  0  0  0
  5  8  1  0  0  0  0
  6  5  2  0  0  0  0
  7  5  2  0  0  0  0
  9 11  1  0  0  0  0
  9 13  1  0  0  0  0
 10  9  2  0  0  0  0
 12  9  2  0  0  0  0
 14 15  1  0  0  0  0
 14 18  1  0  0  0  0
 16 14  1  0  0  0  0
 17 14  1  0  0  0  0
 19 22  1  0  0  0  0
 19 21  1  0  0  0  0
 19 23  1  0  0  0  0
 20 19  1  0  0  0  0
 24 25  1  0  0  0  0
 26 24  1  0  0  0  0
 27 24  1  0  0  0  0
 28 24  1  0  0  0  0
 29 31  1  0  0  0  0
 29 33  1  0  0  0  0
 30 29  1  0  0  0  0
 32 29  1  0  0  0  0
 34 35  2  0  0  0  0
 34 37  1  0  0  0  0
 34 38  1  0  0  0  0
 36 34  2  0  0  0  0
 39 37  1  0  0  0  0
 40 41  1  0  0  0  0
 40  5  1  0  0  0  0
 42 45  1  0  0  0  0
 43 42  1  0  0  0  0
 44 42  1  0  0  0  0
 46 42  1  0  0  0  0
 48 47  1  0  0  0  0
M  RAD  5   3   2   8   2  11   2  13   2  38   2
M  END
$$$$
