4sa_4a.log
 OpenBabel02271919093D
Gaussian kemi/andersx/programs/g09/g09 # opt freq wb97xd 6-31++g(d,p)
 44 36  0  0  0  0  0  0  0  0999 V2000
   -3.9639    0.2176   -0.0515 S   0  0  0  0  0  0  0  0  0  0  0  0
   -3.1836    1.3146   -0.7484 O   0  0  0  0  0  0  0  0  0  0  0  0
   -3.2598    0.1012    1.3925 O   0  0  0  0  0  0  0  0  0  0  0  0
   -5.3367    0.5745    0.2083 O   0  0  0  0  0  0  0  0  0  0  0  0
   -3.6971   -1.0568   -0.7552 O   0  0  0  0  0  0  0  0  0  0  0  0
   -2.4437   -0.4512    1.3060 H   0  0  0  0  0  0  0  0  0  0  0  0
   -0.8970   -2.5718    0.1777 S   0  0  0  0  0  0  0  0  0  0  0  0
   -1.0395   -1.3691    1.0553 O   0  0  0  0  0  0  0  0  0  0  0  0
   -2.3411   -3.1845    0.0190 O   0  0  0  0  0  0  0  0  0  0  0  0
   -0.0713   -3.6230    0.7772 O   0  0  0  0  0  0  0  0  0  0  0  0
   -0.4102   -2.1763   -1.1745 O   0  0  0  0  0  0  0  0  0  0  0  0
   -2.9702   -2.4629   -0.2651 H   0  0  0  0  0  0  0  0  0  0  0  0
    0.8975    2.5681   -0.1729 S   0  0  0  0  0  0  0  0  0  0  0  0
    2.3409    3.1830   -0.0151 O   0  0  0  0  0  0  0  0  0  0  0  0
    0.0713    3.6204   -0.7720 O   0  0  0  0  0  0  0  0  0  0  0  0
    0.4102    2.1711    1.1773 O   0  0  0  0  0  0  0  0  0  0  0  0
    1.0410    1.3679   -1.0540 O   0  0  0  0  0  0  0  0  0  0  0  0
   -2.2119    3.2901    0.7433 N   0  0  0  0  0  0  0  0  0  0  0  0
   -1.6443    2.8235    1.4564 H   0  0  0  0  0  0  0  0  0  0  0  0
   -2.7079    2.5413    0.1768 H   0  0  0  0  0  0  0  0  0  0  0  0
   -1.5264    3.7593    0.1236 H   0  0  0  0  0  0  0  0  0  0  0  0
   -2.8731    3.9390    1.1600 H   0  0  0  0  0  0  0  0  0  0  0  0
   -1.1726    0.2493   -2.2764 N   0  0  0  0  0  0  0  0  0  0  0  0
   -1.3053    0.2752   -3.2830 H   0  0  0  0  0  0  0  0  0  0  0  0
   -0.3318    0.7856   -1.9889 H   0  0  0  0  0  0  0  0  0  0  0  0
   -2.0039    0.6548   -1.7872 H   0  0  0  0  0  0  0  0  0  0  0  0
   -1.0310   -0.7270   -1.9461 H   0  0  0  0  0  0  0  0  0  0  0  0
    1.1753   -0.2534    2.2792 N   0  0  0  0  0  0  0  0  0  0  0  0
    2.0058   -0.6579    1.7878 H   0  0  0  0  0  0  0  0  0  0  0  0
    1.0310    0.7225    1.9486 H   0  0  0  0  0  0  0  0  0  0  0  0
    0.3347   -0.7910    1.9944 H   0  0  0  0  0  0  0  0  0  0  0  0
    1.3109   -0.2783    3.2854 H   0  0  0  0  0  0  0  0  0  0  0  0
    2.2008   -3.2762   -0.7595 N   0  0  0  0  0  0  0  0  0  0  0  0
    2.7000   -2.5329   -0.1887 H   0  0  0  0  0  0  0  0  0  0  0  0
    2.8605   -3.8918   -1.2260 H   0  0  0  0  0  0  0  0  0  0  0  0
    1.5869   -2.8020   -1.4303 H   0  0  0  0  0  0  0  0  0  0  0  0
    1.5547   -3.7837   -0.1312 H   0  0  0  0  0  0  0  0  0  0  0  0
    3.9655   -0.2170    0.0508 S   0  0  0  0  0  0  0  0  0  0  0  0
    3.6985    1.0562    0.7567 O   0  0  0  0  0  0  0  0  0  0  0  0
    5.3384   -0.5739   -0.2079 O   0  0  0  0  0  0  0  0  0  0  0  0
    3.1834   -1.3150    0.7442 O   0  0  0  0  0  0  0  0  0  0  0  0
    3.2634   -0.0974   -1.3940 O   0  0  0  0  0  0  0  0  0  0  0  0
    2.9710    2.4620    0.2684 H   0  0  0  0  0  0  0  0  0  0  0  0
    2.4471    0.4549   -1.3072 H   0  0  0  0  0  0  0  0  0  0  0  0
  1  4  1  0  0  0  0
  1  3  1  0  0  0  0
  2  1  2  0  0  0  0
  5  1  2  0  0  0  0
  6  3  1  0  0  0  0
  7 10  2  0  0  0  0
  7  8  1  0  0  0  0
  9  7  1  0  0  0  0
 11  7  2  0  0  0  0
 12  9  1  0  0  0  0
 13 14  1  0  0  0  0
 13 16  1  0  0  0  0
 14 43  1  0  0  0  0
 15 13  2  0  0  0  0
 17 13  2  0  0  0  0
 18 22  1  0  0  0  0
 18 19  1  0  0  0  0
 20 18  1  0  0  0  0
 21 18  1  0  0  0  0
 23 25  1  0  0  0  0
 23 27  1  0  0  0  0
 23 26  1  0  0  0  0
 24 23  1  0  0  0  0
 28 32  1  0  0  0  0
 29 28  1  0  0  0  0
 30 28  1  0  0  0  0
 31 28  1  0  0  0  0
 33 34  1  0  0  0  0
 33 37  1  0  0  0  0
 35 33  1  0  0  0  0
 36 33  1  0  0  0  0
 38 41  2  0  0  0  0
 38 39  1  0  0  0  0
 40 38  2  0  0  0  0
 42 44  1  0  0  0  0
 42 38  1  0  0  0  0
M  RAD  4   4   2   8   2  16   2  39   2
M  END
$$$$
