4sa_2a.log
 OpenBabel02271919093D
Gaussian kemi/andersx/programs/g09/g09 # opt freq wb97xd 6-31++g(d,p)
 36 30  0  0  0  0  0  0  0  0999 V2000
    0.7783   -1.7737   -0.9693 N   0  0  0  0  0  0  0  0  0  0  0  0
    1.7599   -1.8828   -0.6460 H   0  0  0  0  0  0  0  0  0  0  0  0
    0.1321   -1.5463   -0.1979 H   0  0  0  0  0  0  0  0  0  0  0  0
    0.7706   -0.9277   -1.5639 H   0  0  0  0  0  0  0  0  0  0  0  0
   -1.8463    1.8332   -1.7314 N   0  0  0  0  0  0  0  0  0  0  0  0
   -1.8427    2.1526   -0.7466 H   0  0  0  0  0  0  0  0  0  0  0  0
   -0.9000    1.4395   -1.8905 H   0  0  0  0  0  0  0  0  0  0  0  0
   -2.5910    1.1149   -1.7760 H   0  0  0  0  0  0  0  0  0  0  0  0
   -1.5165    0.4562    1.4519 S   0  0  0  0  0  0  0  0  0  0  0  0
   -2.7529    0.2583    2.1937 O   0  0  0  0  0  0  0  0  0  0  0  0
   -1.3051    1.8476    0.9644 O   0  0  0  0  0  0  0  0  0  0  0  0
   -1.3562   -0.5156    0.3193 O   0  0  0  0  0  0  0  0  0  0  0  0
    0.2073    2.5468    0.5053 H   0  0  0  0  0  0  0  0  0  0  0  0
    1.6950    1.4440   -0.5204 S   0  0  0  0  0  0  0  0  0  0  0  0
    1.0357    2.7839    0.0163 O   0  0  0  0  0  0  0  0  0  0  0  0
    3.0378    1.8052   -0.9505 O   0  0  0  0  0  0  0  0  0  0  0  0
    1.6855    0.4829    0.6333 O   0  0  0  0  0  0  0  0  0  0  0  0
    0.8181    0.9349   -1.6109 O   0  0  0  0  0  0  0  0  0  0  0  0
    0.4710   -2.5993   -1.4769 H   0  0  0  0  0  0  0  0  0  0  0  0
   -2.0405    2.5968   -2.3738 H   0  0  0  0  0  0  0  0  0  0  0  0
   -0.3355    0.1545    2.4653 O   0  0  0  0  0  0  0  0  0  0  0  0
    0.5087    0.3013    1.9768 H   0  0  0  0  0  0  0  0  0  0  0  0
    4.6218   -1.1680    0.0263 S   0  0  0  0  0  0  0  0  0  0  0  0
    5.1582    0.1048   -0.7352 O   0  0  0  0  0  0  0  0  0  0  0  0
    4.0455   -0.5878    1.3831 O   0  0  0  0  0  0  0  0  0  0  0  0
    5.7436   -1.9988    0.3335 O   0  0  0  0  0  0  0  0  0  0  0  0
    3.4921   -1.7128   -0.7331 O   0  0  0  0  0  0  0  0  0  0  0  0
    4.4264    0.7465   -0.9148 H   0  0  0  0  0  0  0  0  0  0  0  0
    3.1809   -0.1362    1.2100 H   0  0  0  0  0  0  0  0  0  0  0  0
   -4.6366   -0.8601   -0.5693 S   0  0  0  0  0  0  0  0  0  0  0  0
   -3.4535   -1.9111   -0.4738 O   0  0  0  0  0  0  0  0  0  0  0  0
   -5.0278   -0.5941    0.9348 O   0  0  0  0  0  0  0  0  0  0  0  0
   -4.0764    0.3755   -1.1226 O   0  0  0  0  0  0  0  0  0  0  0  0
   -5.7485   -1.4925   -1.2083 O   0  0  0  0  0  0  0  0  0  0  0  0
   -4.2704   -0.2070    1.4423 H   0  0  0  0  0  0  0  0  0  0  0  0
   -2.6395   -1.4487   -0.1330 H   0  0  0  0  0  0  0  0  0  0  0  0
  1  2  1  0  0  0  0
  1  3  1  0  0  0  0
  4  1  1  0  0  0  0
  5  6  1  0  0  0  0
  7  5  1  0  0  0  0
  8  5  1  0  0  0  0
  9 10  1  0  0  0  0
  9 21  1  0  0  0  0
 11  9  2  0  0  0  0
 12  9  2  0  0  0  0
 14 15  1  0  0  0  0
 14 17  1  0  0  0  0
 15 13  1  0  0  0  0
 16 14  2  0  0  0  0
 18 14  2  0  0  0  0
 19  1  1  0  0  0  0
 20  5  1  0  0  0  0
 22 21  1  0  0  0  0
 23 26  2  0  0  0  0
 23 25  1  0  0  0  0
 24 23  1  0  0  0  0
 27 23  2  0  0  0  0
 28 24  1  0  0  0  0
 29 25  1  0  0  0  0
 30 31  1  0  0  0  0
 30 32  1  0  0  0  0
 31 36  1  0  0  0  0
 32 35  1  0  0  0  0
 33 30  2  0  0  0  0
 34 30  2  0  0  0  0
M  RAD  2  10   2  17   2
M  END
$$$$
