34
2sa1ma1tma-01
S       -0.49360700       2.19557600      -0.00821200
O        0.20366300       1.29677200       0.97247900
O       -1.94198700       1.87349700      -0.05942600
O       -0.15827500       3.59430900       0.12463500
O        0.10409100       1.75228500      -1.44744600
H        0.05523800       0.76990900      -1.49366800
S       -0.27972000      -1.91891700      -0.20731400
O        0.37788400      -0.88898700      -1.08447300
O       -1.51861400      -2.44543000      -0.80741500
O        0.68143600      -2.90471800       0.26979700
O       -0.80215300      -1.08284800       1.06723100
H       -0.40500100      -0.15526700       1.08097600
N       -3.31689700      -0.39453400      -0.41538900
H       -2.70300800      -1.20511300      -0.66905700
H       -2.70691300       0.46348800      -0.32487000
C       -3.99768300      -0.65418000       0.87537500
H       -4.56618400       0.22908200       1.16525800
H       -4.65531600      -1.51748500       0.77552300
H       -3.22456400      -0.86075100       1.61376100
H       -3.98050700      -0.23128200      -1.16939600
N        2.73062700      -0.15108900       0.11188800
C        2.68397800      -0.45007300       1.56824200
H        2.05871100       0.30150500       2.04837100
H        2.24761000      -1.44151200       1.69908300
H        3.70107700      -0.41995800       1.96522900
C        3.51080000      -1.17548600      -0.62848600
H        3.04327700      -2.14610900      -0.45688900
H        3.47659800      -0.93906500      -1.69202800
H        4.54221200      -1.16736300      -0.27001700
C        3.19727500       1.23264100      -0.15753200
H        3.11175700       1.43007700      -1.22593200
H        2.55468800       1.92280500       0.38788100
H        4.23608800       1.32474600       0.16697500
H        1.75676700      -0.24134800      -0.25693000
34
2sa1ma1tma-02
S       -1.03880500      -1.82855200       0.19424500
O       -2.39058100      -1.76529700       0.79437400
O       -0.01401500      -1.13583200       1.03307400
O       -0.60499300      -3.14136800      -0.25096600
O       -1.18466300      -0.88501000      -1.12049600
H       -0.47863900      -0.18417300      -1.12603100
S        0.29306100       2.08808400       0.03554400
O       -1.15644800       2.37061900      -0.04142700
O        0.66122600       1.00331500      -0.95064500
O        1.17598800       3.23235500      -0.00447100
O        0.55319200       1.39575100       1.46970800
H        0.19918000       0.46685200       1.43353500
N       -3.29248200       0.74074800       0.33523900
H       -2.43009700       1.33169200       0.23484400
H       -2.98996600      -0.23220400       0.61287600
C       -4.02041400       0.69024200      -0.95483000
H       -4.93556100       0.11130500      -0.83301100
H       -4.24975600       1.70421100      -1.28166800
H       -3.36712800       0.20038900      -1.67533200
H       -3.86153300       1.13816200       1.07937400
N        2.70941400      -0.61186100      -0.19976400
C        2.57587700      -1.90589300      -0.91855900
H        1.76968400      -2.48307300      -0.46249700
H        2.32875700      -1.70137000      -1.96074700
H        3.52419600      -2.44393800      -0.85591700
C        3.70750400       0.28911500      -0.82922300
H        3.43443100       0.43958500      -1.87323000
H        3.68105100       1.25023500      -0.31481000
H        4.69796300      -0.16393700      -0.75249700
C        2.98065100      -0.80988900       1.24739500
H        2.96067400       0.16294700       1.73865500
H        2.19241500      -1.44026400       1.65599800
H        3.96048300      -1.27939900       1.35912000
H        1.79786900      -0.10944200      -0.30550700
34
2sa1ma1tma-03
S        0.69752300       1.88437300      -0.30373000
O        0.62778400       0.83335600       0.76248600
O        0.44484800       1.09770400      -1.68260300
O       -0.43172300       2.82919600      -0.12486300
O        2.01493500       2.47814000      -0.47104800
H       -1.53997000       2.03116600       0.78286100
H        1.70350200      -0.39560000       0.54934800
S       -1.49472400      -1.57006400      -0.19753400
O       -2.04082200      -1.22423600       1.13562600
O       -0.16218400      -2.15895600      -0.20408800
O       -2.42660200      -2.78600100      -0.74691900
O       -1.69279400      -0.45225200      -1.15500600
H       -3.34362200      -2.48241800      -0.76226000
H       -0.35831700       0.52518500      -1.58296300
N       -2.31139600       1.51024700       1.28269500
H       -2.05729200       0.49570000       1.31396100
C       -3.58336100       1.67869000       0.54572700
H       -4.38656800       1.16596300       1.07520000
H       -3.80795200       2.74046700       0.44618700
H       -3.44461700       1.23254800      -0.43881500
H       -2.36673300       1.86087500       2.23589200
N        2.60133500      -0.93602800       0.40792300
C        2.54560600      -2.17412900       1.22132300
H        2.40976900      -1.89874600       2.26781600
H        1.69512400      -2.76707300       0.88828300
H        3.48375000      -2.72050400       1.09774000
C        2.70453900      -1.22944400      -1.04624500
H        1.84350200      -1.83260200      -1.33156100
H        2.68257300      -0.28467800      -1.58976600
H        3.64124300      -1.76061900      -1.23159200
C        3.68398900      -0.02267600       0.85536800
H        3.60208500       0.91153500       0.29722900
H        3.54691600       0.18362800       1.91713400
H        4.65006700      -0.50355100       0.68549100
