1tma.log
 OpenBabel02271919113D
Gaussian users/kemi/kmacke/programs/G09D/g09/g09 # opt freq 6-31++g(d,p) geom=co
 13 12  0  0  0  0  0  0  0  0999 V2000
   -0.0000    0.0000   -0.3753 N   0  0  0  0  0  0  0  0  0  0  0  0
    0.9493    1.0063    0.0611 C   0  0  0  0  0  0  0  0  0  0  0  0
    0.3969   -1.3252    0.0611 C   0  0  0  0  0  0  0  0  0  0  0  0
   -1.3462    0.3189    0.0611 C   0  0  0  0  0  0  0  0  0  0  0  0
    1.3919   -1.5613   -0.3279 H   0  0  0  0  0  0  0  0  0  0  0  0
   -0.3046   -2.0693   -0.3276 H   0  0  0  0  0  0  0  0  0  0  0  0
    0.4259   -1.4211    1.1648 H   0  0  0  0  0  0  0  0  0  0  0  0
    1.9445    0.7705   -0.3274 H   0  0  0  0  0  0  0  0  0  0  0  0
    1.0177    1.0795    1.1648 H   0  0  0  0  0  0  0  0  0  0  0  0
    0.6566    1.9860   -0.3282 H   0  0  0  0  0  0  0  0  0  0  0  0
   -1.4437    0.3418    1.1648 H   0  0  0  0  0  0  0  0  0  0  0  0
   -2.0481   -0.4249   -0.3278 H   0  0  0  0  0  0  0  0  0  0  0  0
   -1.6400    1.2985   -0.3276 H   0  0  0  0  0  0  0  0  0  0  0  0
  1  4  1  0  0  0  0
  1  3  1  0  0  0  0
  1  2  1  0  0  0  0
  2  9  1  0  0  0  0
  3  7  1  0  0  0  0
  4 11  1  0  0  0  0
  5  3  1  0  0  0  0
  6  3  1  0  0  0  0
  8  2  1  0  0  0  0
 10  2  1  0  0  0  0
 12  4  1  0  0  0  0
 13  4  1  0  0  0  0
M  END
$$$$
