37
1msa1nta1dma1tma-11
S       -2.36465100      -0.78208200      -0.00007400
O       -2.09234200      -1.92561400       0.88751400
O       -1.27428200      -0.52038500      -0.97856100
O       -2.73940700       0.47035700       0.73055900
H       -1.54923700       1.59482400       0.56514800
C       -3.81438300      -1.21483000      -0.95223700
H       -4.63787700      -1.37816600      -0.25663000
H       -4.04232100      -0.39486500      -1.63363200
H       -3.59590700      -2.12796600      -1.50666800
N        2.43970400       1.39205200      -0.18936400
O        3.34594000       0.74393100      -0.72334800
O        2.27435500       2.59941600      -0.37098500
O        1.61564600       0.77184400       0.59072800
H        1.77244700      -0.85061500       0.37346300
N       -0.74460600       2.23581300       0.33470500
C       -0.64914900       3.34335100       1.30342400
C       -0.88713800       2.66779900      -1.07235900
H        0.11427700       1.65377100       0.42164900
H       -1.54886000       3.95799700       1.24185700
H       -0.55987700       2.92354800       2.30559300
H        0.23697200       3.93646000       1.07286100
H       -1.80279000       3.25389000      -1.17122400
H       -0.01603800       3.26094800      -1.35264300
H       -0.95386900       1.76671400      -1.68272600
N        1.88833100      -1.88483400       0.18522600
C        3.31720900      -2.20648700       0.41108600
H        3.92245700      -1.57066100      -0.23344100
H        3.56186000      -2.00074500       1.45390900
H        3.48311100      -3.26383200       0.19190900
C        1.00139800      -2.62635400       1.11814900
H        1.28203300      -2.37202800       2.14133800
H       -0.04117500      -2.34841000       0.94132100
H        1.13905300      -3.69786600       0.95312300
C        1.49018300      -2.08943100      -1.23220400
H        0.45517300      -1.75738000      -1.34421500
H        2.14793700      -1.48518800      -1.85826800
H        1.59502500      -3.14902200      -1.47791500
37
1msa1nta1dma1tma-22
S        2.11169900       0.89857700      -0.10577700
O        1.54207000       2.15887800      -0.64937400
O        2.61920300      -0.03817600      -1.12375200
O        1.15498600       0.23677700       0.84157400
H        0.57997300      -1.32075500       0.28542000
C        3.51349000       1.39234200       0.88500100
H        4.23008000       1.88664100       0.22864000
H        3.16769200       2.07670600       1.65985000
H        3.95387200       0.49858700       1.32790000
N       -2.96023500      -0.64578000      -0.00071500
O       -3.64228900       0.36089000       0.24828700
O       -3.38700600      -1.79439400       0.14948100
O       -1.75831300      -0.48431200      -0.42279100
H       -1.39319800       1.10078800      -0.26436500
N       -1.16069800       2.12050000      -0.10510500
C       -1.31414600       2.39125800       1.33848900
C       -2.02295400       2.94657300      -0.96984200
H       -0.15768200       2.22801000      -0.36595600
H       -2.34329400       2.17085800       1.62496400
H       -0.62376600       1.73760300       1.87221500
H       -1.07449600       3.43742800       1.53968600
H       -3.06461500       2.71591500      -0.74336700
H       -1.81451300       4.00361900      -0.79317300
H       -1.81261300       2.70131400      -2.01120200
N        0.62105100      -2.33829800       0.03667300
C        1.99420200      -2.77657800       0.39177100
H        2.69947200      -2.17780900      -0.18514900
H        2.14893800      -2.60717700       1.45776900
H        2.09888800      -3.83886600       0.16062300
C       -0.40947900      -3.06017700       0.82588100
H       -0.23946900      -2.85726100       1.88418100
H       -1.39995100      -2.70890500       0.53104700
H       -0.30779300      -4.13079300       0.63272500
C        0.38121200      -2.45149100      -1.42703800
H       -0.62668700      -2.09079800      -1.62706300
H        1.11744900      -1.82689500      -1.93467000
H        0.49055300      -3.49926500      -1.71658700
37
1msa1nta1dma1tma-44
S        2.22227000      -0.40652600       0.02574300
O        2.25017400      -1.79771600       0.50122500
O        2.53282500       0.63150200       1.02490900
O        0.91183100      -0.10414000      -0.67687200
H        0.14954500       1.37896400      -0.21149400
C        3.46410000      -0.27261700      -1.25328400
H        4.43462400      -0.46677600      -0.79582800
H        3.24890800      -1.01204000      -2.02480300
H        3.43326500       0.73547600      -1.66812500
N       -3.07097200      -0.06243800      -0.14409900
O       -3.24298800      -1.24569900      -0.55290700
O       -3.83623600       0.84179300      -0.48402500
O       -2.08535000       0.17673400       0.60893700
H       -0.21101100      -1.42576900      -0.19399800
N       -0.77869700      -2.27012000       0.01891700
C       -0.68151000      -2.55301300       1.46737500
C       -0.31748400      -3.37584900      -0.84108900
H       -1.76668600      -1.99030700      -0.20796900
H        0.36685800      -2.71147600       1.72100600
H       -1.07865400      -1.68783100       1.99723800
H       -1.27945900      -3.43697400       1.69707700
H        0.73928600      -3.55528600      -0.63866400
H       -0.90601000      -4.27006000      -0.62814500
H       -0.45416900      -3.08891600      -1.88414200
N       -0.02116100       2.38831600       0.02256100
C        1.20278700       3.11697800      -0.39568600
H        2.05115600       2.69993300       0.14763100
H        1.34144700       2.97640200      -1.46857200
H        1.07544000       4.17864100      -0.17332400
C       -1.21632200       2.86027800      -0.72373500
H       -1.04826500       2.69285500      -1.78843700
H       -2.09307900       2.30060400      -0.39622600
H       -1.34677600       3.92800400      -0.53219900
C       -0.21538300       2.46165900       1.49553100
H       -1.11267200       1.89477900       1.74116000
H        0.66208400       2.01895600       1.96857300
H       -0.32551900       3.51052200       1.78090000
