2dma_H.log
 OpenBabel02281910153D
Gaussian opt/gaussian/g09/g09 # opt freq rwb97xd/6-31++g(d,p) geom=connectivity
 21 19  0  0  0  0  0  0  0  0999 V2000
    1.3227    0.2161   -0.4445 N   0  0  0  0  0  0  0  0  0  0  0  0
   -1.3317   -0.2134   -0.4399 N   0  0  0  0  0  0  0  0  0  0  0  0
   -0.2285   -0.0394   -0.5078 H   0  0  0  0  0  0  0  0  0  0  0  0
   -1.6386   -0.5928   -1.3362 H   0  0  0  0  0  0  0  0  0  0  0  0
   -2.0037    1.0907   -0.2086 C   0  0  0  0  0  0  0  0  0  0  0  0
   -1.6402    1.5057    0.7323 H   0  0  0  0  0  0  0  0  0  0  0  0
   -1.7571    1.7690   -1.0258 H   0  0  0  0  0  0  0  0  0  0  0  0
   -3.0843    0.9521   -0.1540 H   0  0  0  0  0  0  0  0  0  0  0  0
   -1.5888   -1.2143    0.6266 C   0  0  0  0  0  0  0  0  0  0  0  0
   -1.0845   -2.1464    0.3711 H   0  0  0  0  0  0  0  0  0  0  0  0
   -1.1904   -0.8284    1.5659 H   0  0  0  0  0  0  0  0  0  0  0  0
   -2.6607   -1.3887    0.7298 H   0  0  0  0  0  0  0  0  0  0  0  0
    2.0141   -1.0660   -0.2216 C   0  0  0  0  0  0  0  0  0  0  0  0
    1.6441   -1.5168    0.7035 H   0  0  0  0  0  0  0  0  0  0  0  0
    1.8075   -1.7461   -1.0508 H   0  0  0  0  0  0  0  0  0  0  0  0
    3.0983   -0.9388   -0.1298 H   0  0  0  0  0  0  0  0  0  0  0  0
    1.6032    1.1930    0.6220 C   0  0  0  0  0  0  0  0  0  0  0  0
    1.1267    2.1466    0.3845 H   0  0  0  0  0  0  0  0  0  0  0  0
    1.1944    0.8207    1.5660 H   0  0  0  0  0  0  0  0  0  0  0  0
    2.6773    1.3600    0.7585 H   0  0  0  0  0  0  0  0  0  0  0  0
    1.6501    0.6044   -1.3266 H   0  0  0  0  0  0  0  0  0  0  0  0
  1 13  1  0  0  0  0
  1 17  1  0  0  0  0
  2  5  1  0  0  0  0
  2  9  1  0  0  0  0
  3  2  1  0  0  0  0
  4  2  1  0  0  0  0
  5  8  1  0  0  0  0
  5  6  1  0  0  0  0
  7  5  1  0  0  0  0
  9 12  1  0  0  0  0
  9 11  1  0  0  0  0
 10  9  1  0  0  0  0
 13 16  1  0  0  0  0
 13 14  1  0  0  0  0
 15 13  1  0  0  0  0
 17 20  1  0  0  0  0
 17 19  1  0  0  0  0
 18 17  1  0  0  0  0
 21  1  1  0  0  0  0
M  END
$$$$
