4sa_4dma_H.log
 OpenBabel02281910153D
Gaussian users/kemi/kmacke/programs/G09D/g09/g09 # opt freq 6-31++g(d,p) wb97xd
 69 61  0  0  0  0  0  0  0  0999 V2000
   -2.1000   -2.0263    0.0808 S   0  0  0  0  0  0  0  0  0  0  0  0
   -3.2712   -2.2191    0.9466 O   0  0  0  0  0  0  0  0  0  0  0  0
   -2.4382   -1.1848   -1.1093 O   0  0  0  0  0  0  0  0  0  0  0  0
   -1.7577   -3.4762   -0.4530 O   0  0  0  0  0  0  0  0  0  0  0  0
   -4.4932   -1.1293    0.4167 H   0  0  0  0  0  0  0  0  0  0  0  0
   -0.9087   -3.4402   -0.9633 H   0  0  0  0  0  0  0  0  0  0  0  0
   -2.2220    1.9921   -0.4294 S   0  0  0  0  0  0  0  0  0  0  0  0
   -1.3826    1.0828   -1.3680 O   0  0  0  0  0  0  0  0  0  0  0  0
   -1.6388    3.3234   -0.5186 O   0  0  0  0  0  0  0  0  0  0  0  0
   -2.0151    1.3905    1.0074 O   0  0  0  0  0  0  0  0  0  0  0  0
   -1.7229    0.1068   -1.3196 H   0  0  0  0  0  0  0  0  0  0  0  0
   -5.1514   -0.4477   -0.0227 N   0  0  0  0  0  0  0  0  0  0  0  0
   -6.1546   -0.0041    0.9708 C   0  0  0  0  0  0  0  0  0  0  0  0
   -6.7335   -0.8664    1.3027 H   0  0  0  0  0  0  0  0  0  0  0  0
   -6.8137    0.7344    0.5131 H   0  0  0  0  0  0  0  0  0  0  0  0
   -5.6343    0.4406    1.8187 H   0  0  0  0  0  0  0  0  0  0  0  0
   -5.7210   -1.0685   -1.2425 C   0  0  0  0  0  0  0  0  0  0  0  0
   -6.2998   -1.9470   -0.9556 H   0  0  0  0  0  0  0  0  0  0  0  0
   -4.8930   -1.3617   -1.8874 H   0  0  0  0  0  0  0  0  0  0  0  0
   -6.3610   -0.3452   -1.7488 H   0  0  0  0  0  0  0  0  0  0  0  0
   -1.0441    1.2660    1.2261 H   0  0  0  0  0  0  0  0  0  0  0  0
   -4.5679    0.3600   -0.2995 H   0  0  0  0  0  0  0  0  0  0  0  0
   -0.9015   -1.5020    0.7590 O   0  0  0  0  0  0  0  0  0  0  0  0
   -3.6475    1.8742   -0.6858 O   0  0  0  0  0  0  0  0  0  0  0  0
    1.8225    1.4021    1.1270 S   0  0  0  0  0  0  0  0  0  0  0  0
    2.8027    0.3620    1.5324 O   0  0  0  0  0  0  0  0  0  0  0  0
    1.6933    1.3454   -0.4670 O   0  0  0  0  0  0  0  0  0  0  0  0
    2.2974    2.7733    1.3503 O   0  0  0  0  0  0  0  0  0  0  0  0
    4.1932   -0.0162    0.4368 H   0  0  0  0  0  0  0  0  0  0  0  0
    1.4318    3.9092    0.3863 H   0  0  0  0  0  0  0  0  0  0  0  0
    1.5548   -2.1498   -1.5319 S   0  0  0  0  0  0  0  0  0  0  0  0
    2.4169   -2.2277   -0.3326 O   0  0  0  0  0  0  0  0  0  0  0  0
    0.6120   -3.2581   -1.6900 O   0  0  0  0  0  0  0  0  0  0  0  0
    2.6565   -2.3309   -2.7189 O   0  0  0  0  0  0  0  0  0  0  0  0
    1.3122    0.4875   -0.8230 H   0  0  0  0  0  0  0  0  0  0  0  0
    4.6057   -0.6140   -0.3023 N   0  0  0  0  0  0  0  0  0  0  0  0
    5.8727   -1.2251    0.1556 C   0  0  0  0  0  0  0  0  0  0  0  0
    6.6188   -0.4442    0.3070 H   0  0  0  0  0  0  0  0  0  0  0  0
    6.2210   -1.9306   -0.5993 H   0  0  0  0  0  0  0  0  0  0  0  0
    5.6928   -1.7496    1.0937 H   0  0  0  0  0  0  0  0  0  0  0  0
    4.7107    0.1478   -1.5701 C   0  0  0  0  0  0  0  0  0  0  0  0
    5.4597    0.9324   -1.4559 H   0  0  0  0  0  0  0  0  0  0  0  0
    3.7368    0.5869   -1.7849 H   0  0  0  0  0  0  0  0  0  0  0  0
    4.9948   -0.5360   -2.3698 H   0  0  0  0  0  0  0  0  0  0  0  0
    2.1966   -2.5160   -3.5504 H   0  0  0  0  0  0  0  0  0  0  0  0
    3.8678   -1.3465   -0.4077 H   0  0  0  0  0  0  0  0  0  0  0  0
    0.4913    1.1089    1.6937 O   0  0  0  0  0  0  0  0  0  0  0  0
    0.9600   -0.8160   -1.7247 O   0  0  0  0  0  0  0  0  0  0  0  0
    0.8447    4.4994   -0.2419 N   0  0  0  0  0  0  0  0  0  0  0  0
    1.4830    4.5678   -1.5770 C   0  0  0  0  0  0  0  0  0  0  0  0
    0.6063    5.8155    0.3949 C   0  0  0  0  0  0  0  0  0  0  0  0
   -0.0592    3.9994   -0.3341 H   0  0  0  0  0  0  0  0  0  0  0  0
    2.4541    5.0552   -1.4830 H   0  0  0  0  0  0  0  0  0  0  0  0
    1.6074    3.5502   -1.9455 H   0  0  0  0  0  0  0  0  0  0  0  0
    0.8420    5.1368   -2.2510 H   0  0  0  0  0  0  0  0  0  0  0  0
    1.5612    6.3234    0.5337 H   0  0  0  0  0  0  0  0  0  0  0  0
   -0.0461    6.4112   -0.2441 H   0  0  0  0  0  0  0  0  0  0  0  0
    0.1295    5.6546    1.3613 H   0  0  0  0  0  0  0  0  0  0  0  0
    1.1399   -1.8655    2.4614 N   0  0  0  0  0  0  0  0  0  0  0  0
    1.8766   -1.2375    2.1042 H   0  0  0  0  0  0  0  0  0  0  0  0
    0.3653   -1.7936    1.7661 H   0  0  0  0  0  0  0  0  0  0  0  0
    1.6131   -3.2683    2.5136 C   0  0  0  0  0  0  0  0  0  0  0  0
    0.6419   -1.3457    3.7572 C   0  0  0  0  0  0  0  0  0  0  0  0
    0.7817   -3.9059    2.8166 H   0  0  0  0  0  0  0  0  0  0  0  0
    1.9593   -3.5500    1.5203 H   0  0  0  0  0  0  0  0  0  0  0  0
    2.4219   -3.3487    3.2416 H   0  0  0  0  0  0  0  0  0  0  0  0
   -0.2080   -1.9515    4.0732 H   0  0  0  0  0  0  0  0  0  0  0  0
    1.4389   -1.4023    4.4997 H   0  0  0  0  0  0  0  0  0  0  0  0
    0.3333   -0.3121    3.6100 H   0  0  0  0  0  0  0  0  0  0  0  0
  1 23  2  0  0  0  0
  1  2  1  0  0  0  0
  3  1  2  0  0  0  0
  4  1  1  0  0  0  0
  6  4  1  0  0  0  0
  7 10  1  0  0  0  0
  8 11  1  0  0  0  0
  8  7  1  0  0  0  0
  9  7  2  0  0  0  0
 10 21  1  0  0  0  0
 12  5  1  0  0  0  0
 12 13  1  0  0  0  0
 13 14  1  0  0  0  0
 13 16  1  0  0  0  0
 15 13  1  0  0  0  0
 17 18  1  0  0  0  0
 17 12  1  0  0  0  0
 19 17  1  0  0  0  0
 20 17  1  0  0  0  0
 22 12  1  0  0  0  0
 24  7  2  0  0  0  0
 25 28  2  0  0  0  0
 25 26  2  0  0  0  0
 25 47  1  0  0  0  0
 27 25  1  0  0  0  0
 31 32  1  0  0  0  0
 33 31  2  0  0  0  0
 34 31  1  0  0  0  0
 35 27  1  0  0  0  0
 36 37  1  0  0  0  0
 36 29  1  0  0  0  0
 37 38  1  0  0  0  0
 37 40  1  0  0  0  0
 39 37  1  0  0  0  0
 41 42  1  0  0  0  0
 41 36  1  0  0  0  0
 43 41  1  0  0  0  0
 44 41  1  0  0  0  0
 45 34  1  0  0  0  0
 46 36  1  0  0  0  0
 48 31  2  0  0  0  0
 49 30  1  0  0  0  0
 49 51  1  0  0  0  0
 50 53  1  0  0  0  0
 50 49  1  0  0  0  0
 51 56  1  0  0  0  0
 51 58  1  0  0  0  0
 52 49  1  0  0  0  0
 54 50  1  0  0  0  0
 55 50  1  0  0  0  0
 57 51  1  0  0  0  0
 59 62  1  0  0  0  0
 59 63  1  0  0  0  0
 60 59  1  0  0  0  0
 61 59  1  0  0  0  0
 62 64  1  0  0  0  0
 62 66  1  0  0  0  0
 63 67  1  0  0  0  0
 63 68  1  0  0  0  0
 65 62  1  0  0  0  0
 69 63  1  0  0  0  0
M  RAD  3   2   2  32   2  47   2
M  END
$$$$
