40
2msa1fa1tma1am-2
S        2.90896000      -0.04459300      -0.46911600
O        2.59707200      -1.46692500      -0.24165500
O        2.61574200       0.82052100       0.71519000
O        2.28492900       0.51140400      -1.70176300
C        4.67244100       0.06923200      -0.70930700
H        5.16101900      -0.32467600       0.18191300
H        4.93106500      -0.52425100      -1.58656600
H        4.93061100       1.11709700      -0.86169100
S       -2.59631800       0.56521300      -0.69150600
O       -3.15319100      -0.65499400      -1.29647300
O       -2.08580700       1.56493100      -1.66243200
O       -1.56183200       0.25378500       0.35485300
C       -3.92102400       1.37899900       0.18665100
H       -4.68466000       1.65585200      -0.54048400
H       -4.32614200       0.68385800       0.92258500
H       -3.51283000       2.26508100       0.67373600
H       -0.91293400       1.44393200       3.18492200
H        1.42619300       0.64046500       1.74861500
C       -0.11261800       1.56542400       2.44412200
O        0.68402500       0.52729500       2.42164800
O       -0.00999700       2.57250500       1.76414000
N       -0.83756100      -2.33139600       0.35100000
C       -0.34873600      -2.61178600      -1.02624800
H       -1.09713300      -2.24357500      -1.72928200
H        0.60563500      -2.10223000      -1.16522400
H       -0.21341300      -3.69033600      -1.13782600
C        0.17186100      -2.66751100       1.38686700
H        1.11417000      -2.18383700       1.12766000
H       -0.18675300      -2.30648100       2.35112500
H        0.30156700      -3.75239300       1.41075900
C       -2.13943000      -2.99323500       0.60916000
H       -2.46883100      -2.73578500       1.61687500
H       -2.86039400      -2.62434200      -0.12130300
H       -2.00997500      -4.07463000       0.52451600
H       -1.02851800      -1.29352400       0.39208800
N        0.43705400       2.41864400      -1.00771000
H       -0.51730900       2.12126400      -1.31621000
H        0.66461300       3.32830900      -1.39733600
H        0.43795300       2.47329800       0.02837600
H        1.14485500       1.71131600      -1.31585000
40
2msa1fa1tma1am-1
S       -2.28860800      -1.20746100      -0.60518500
O       -1.52175800      -2.46051200      -0.51992400
O       -2.00431100      -0.39805400      -1.81722700
O       -2.13315000      -0.37983100       0.64068300
H       -3.13552900       0.74500200       1.09561900
C       -4.01477900      -1.65185700      -0.69215000
H       -4.16427600      -2.23786100      -1.59914600
H       -4.25998600      -2.23919900       0.19300100
H       -4.60746900      -0.73693300      -0.72501100
S        2.78226000       1.25765600      -0.39277500
O        2.19394100       2.11836800      -1.43294700
O        3.63830400       0.15680400      -0.86454800
O        1.70861600       0.73333800       0.54745400
H        1.71900300      -0.91112000       0.64713800
C        3.80134900       2.31187400       0.62659900
H        4.22735000       1.71234900       1.43141300
H        4.59025200       2.72007600      -0.00581500
H        3.17905300       3.11187400       1.02787200
H       -4.38111100       3.29556000       1.56056900
H       -1.27386200       2.31062000      -0.33886900
C       -3.59946700       2.63442100       1.16405300
O       -2.64337000       3.07492300       0.54728600
O       -3.84327900       1.38118500       1.44121600
N        1.84812600      -1.95440300       0.74167500
C        1.70550600      -2.53655800      -0.62114100
H        0.67499100      -2.39747800      -0.95137600
H        2.40612600      -2.01946900      -1.27781600
H        1.93382700      -3.60383200      -0.56943400
C        3.21969100      -2.14590400       1.27198900
H        3.92179700      -1.69755800       0.56861200
H        3.29486800      -1.64527300       2.23846200
H        3.40884100      -3.21509600       1.39125600
C        0.81346000      -2.45936400       1.67995200
H        0.90945000      -1.92263300       2.62460400
H       -0.17100100      -2.29418800       1.24111000
H        0.97444800      -3.52849900       1.83722100
N       -0.55596300       1.73640900      -0.81025800
H       -1.03828400       0.99146000      -1.35419600
H        0.04759200       1.28177100      -0.10580300
H        0.08585500       2.27783500      -1.39375000
40
2msa1fa1tma1am-3
S       -2.26034200       1.38159600       0.24928500
O       -1.77464000       2.63674100      -0.33638200
O       -1.38337700       0.86045000       1.33999800
O       -2.50888300       0.31342500      -0.77139700
C       -3.84289100       1.72218200       1.00076200
H       -4.22429000       0.80253700       1.44575400
H       -3.69618000       2.48531600       1.76534800
H       -4.51683100       2.08237400       0.22290600
S        2.79534800      -1.44170300       0.23574600
O        2.02023700      -2.34433700       1.11163900
O        3.67228500      -0.48367200       0.92963600
O        1.89153600      -0.73376800      -0.75260300
C        3.84210700      -2.48843200      -0.76160100
H        4.49083400      -3.04860700      -0.08771700
H        3.20858500      -3.16559100      -1.33452800
H        4.43268300      -1.85654300      -1.42515200
H       -4.91215200      -3.34215300      -0.65099400
H       -3.64774800      -0.77236600      -0.82277100
C       -4.07156800      -2.64275500      -0.55523700
O       -4.41367600      -1.42713000      -0.89019300
O       -2.97264100      -3.01205000      -0.17446400
N        2.08921100       1.94629000      -0.42731500
C        3.52928800       2.23007200      -0.64398700
H        4.10765100       1.59369300       0.02574100
H        3.77795000       1.99838200      -1.68072200
H        3.71532900       3.28799300      -0.44564400
C        1.23421300       2.66990100      -1.40249500
H        1.48809800       2.32887500      -2.40713800
H        0.18199900       2.47849300      -1.18350900
H        1.42935000       3.74093300      -1.31111100
C        1.68558200       2.21284000       0.98038700
H        0.63914000       1.92931000       1.10995900
H        2.32282600       1.60963000       1.62832600
H        1.81672000       3.27762900       1.18600300
H        1.96444600       0.90979500      -0.58205300
N       -0.57613300      -1.61860600       0.40604200
H       -0.85455600      -0.75450500       0.91560200
H       -1.42254700      -2.16646300       0.17931900
H       -0.09962900      -1.30913100      -0.44598600
H        0.13956900      -2.14178300       0.92994000
