48
3sa1ma2dma-301200_1_135
S       -3.45003700      -0.60986500       0.22236500
O       -3.45327000       0.01460800      -1.11394500
O       -2.85323400      -1.96082300       0.23676900
O       -2.94719600       0.28800900       1.27659400
O       -4.99962000      -0.81855900       0.64403500
H       -5.37694900      -1.50773800       0.08015900
S        0.38618400      -1.80881000      -0.82561300
O        0.66174100      -2.10901400       0.60106600
O       -0.03770800      -0.38493300      -0.98428300
O        1.51291000      -2.16418200      -1.70385300
O       -0.82033400      -2.70172000      -1.30665700
H       -1.63151800      -2.45963700      -0.77851500
S        1.98307700       1.94475800       0.39157400
O        2.47011000       0.81679400       1.23709400
O        0.54754600       2.21978400       0.71927600
O        2.84199800       3.10575400       0.33283400
O        1.95730900       1.35756600      -1.11644900
H        1.24388600       0.66461900      -1.16207900
C        0.09301300      -0.05608000       3.57833600
N       -0.33258700      -0.03611800       2.16636800
H        0.01141000       0.81669300       1.68725400
H        0.05416600      -0.84476000       1.63732000
H       -0.34870900       0.79200900       4.10138600
H       -0.23483900      -0.98629700       4.04218000
H        1.17968500       0.02003500       3.60988700
H       -1.35914800      -0.04516200       2.04017000
C       -2.39746400       3.12191200      -0.51035200
N       -1.56634100       2.04553700      -1.09265700
C       -1.01083800       2.35146600      -2.42860300
H       -0.78002900       1.86922000      -0.44183100
H       -3.22565900       3.33737400      -1.18646100
H       -2.78548300       2.76654200       0.44418700
H       -1.77883600       4.00817800      -0.36482900
H       -1.83070700       2.59318400      -3.10631700
H       -0.32287700       3.19358000      -2.34503600
H       -0.47931900       1.47050800      -2.78602300
H       -2.14211700       1.18093300      -1.14767800
C        3.99370200      -2.33677800       0.72575000
N        3.62620800      -1.21778300      -0.16778900
C        4.75616900      -0.58154200      -0.87743900
H        2.92284800      -1.56724300      -0.85341800
H        4.65275600      -1.96567100       1.51207100
H        3.07343300      -2.73599800       1.15301400
H        4.50014600      -3.10978500       0.14586700
H        5.46077000      -0.18687500      -0.14417300
H        5.24738100      -1.31997400      -1.51279700
H        4.36095200       0.23597100      -1.48070200
H        3.14071100      -0.47862600       0.39568100
48
3sa1ma2dma-301200_1_105
S        1.95959800       1.95300000       0.41397400
O        2.44542600       0.82220400       1.25588300
O        0.51437900       2.20567400       0.71656100
O        2.80322900       3.12640400       0.38562000
O        1.97088400       1.38390900      -1.10132200
H        1.26543700       0.68503200      -1.17018700
S       -3.44685900      -0.63042200       0.23664600
O       -3.00953800       0.31372100       1.29254600
O       -3.50037600       0.02558700      -1.08569300
O       -2.74715000      -1.91883000       0.27585700
O       -4.96923500      -1.04827700       0.59338500
H       -5.53054800      -0.26651800       0.50360600
S        0.41343500      -1.79787800      -0.86132900
O        0.67065100      -2.09695900       0.56852600
O       -0.01267500      -0.37563900      -1.02774400
O        1.55200500      -2.15026200      -1.72496200
O       -0.78510800      -2.69524700      -1.35835700
H       -1.59282100      -2.46763800      -0.82412700
C        0.05618700      -0.10760200       3.55243500
N       -0.37813300      -0.05939100       2.14370200
H       -0.00355400      -0.86556600       1.60184800
H       -1.40616700      -0.04901700       2.02659300
H        1.14403000      -0.04858600       3.57812500
H       -0.36873700       0.73916600       4.09135700
H       -0.28329000      -1.03981000       4.00369600
H       -0.02336100       0.79500800       1.67561200
C        4.77236700      -0.55051100      -0.82273600
N        3.63270600      -1.20027600      -0.14135800
C        3.99022200      -2.32248500       0.75233300
H        3.13012900      -0.46877700       0.41696100
H        5.28241800      -1.28067800      -1.45276500
H        4.38370400       0.26840400      -1.42833400
H        5.45833900      -0.15584200      -0.07203500
H        4.51347400      -3.08824700       0.17782000
H        4.63095800      -1.95168000       1.55377000
H        3.06439900      -2.73042800       1.15879300
H        2.94695600      -1.55036800      -0.84385800
C       -1.01980300       2.29696100      -2.45632100
N       -1.57740100       2.02422900      -1.11378000
C       -2.35834300       3.13789300      -0.53373800
H       -2.18607400       1.18071100      -1.15457800
H       -0.29880600       3.11209900      -2.38408500
H       -0.52626500       1.39204300      -2.80827100
H       -1.83413500       2.56540200      -3.13069900
H       -1.70243900       3.99861200      -0.39918600
H       -3.18217500       3.38388800      -1.20502200
H       -2.74984100       2.80620600       0.42795900
H       -0.79434500       1.82565000      -0.46585600
48
3sa1ma2dma-301200_1_186
S       -0.42058400      -1.86250300      -0.68162400
O        0.01819600      -0.44712800      -0.88111900
O       -0.71337300      -2.10649200       0.75219100
O       -1.53915000      -2.23932300      -1.56158000
O        0.78023400      -2.78107800      -1.12400900
H        1.60742400      -2.50849300      -0.63560200
S        3.49889100      -0.63792400       0.15953300
O        2.88939700      -1.97891700       0.26889500
O        3.74969400      -0.18056200      -1.20526300
O        2.80740400       0.39197200       0.98005400
O        4.92501800      -0.76107200       0.92307400
H        5.39913200      -1.51758100       0.55111200
S       -2.06757800       1.98571700       0.25592900
O       -0.66225800       2.34796200       0.63314700
O       -2.53674700       0.88693700       1.14786200
O       -2.97561100       3.09744100       0.08999900
O       -1.93986400       1.31754700      -1.21056100
H       -1.23001700       0.61998000      -1.17475900
C        0.00675900       0.18394500       3.55670200
N        0.28628300       0.11096600       2.11066500
H       -0.09895800       0.93537800       1.61468000
H        1.29587400       0.08099800       1.88422200
H       -1.07099500       0.26377700       3.69685200
H        0.38331000      -0.71556000       4.04347800
H        0.49639500       1.06236000       3.97692700
H       -0.14577200      -0.72963800       1.67543800
C       -4.09135900      -2.27528100       0.77337300
N       -3.68707100      -1.20690600      -0.16481800
C       -4.78716900      -0.60273300      -0.94566600
H       -3.21451000      -0.44152700       0.37357900
H       -4.58266400      -3.07570200       0.21816200
H       -3.18868300      -2.65607400       1.25216900
H       -4.77401400      -1.86078500       1.51671900
H       -5.26288700      -1.37125100      -1.55666200
H       -5.51284800      -0.16386600      -0.25955800
H       -4.36528500       0.17790600      -1.57914800
H       -2.96133700      -1.59536200      -0.80594600
C        2.38939100       3.31726000      -0.59125600
N        1.59510300       2.11720000      -0.93122100
C        1.53446600       1.81688600      -2.38031800
H        2.00968700       1.31908700      -0.42227600
H        1.95627300       4.18663700      -1.08724300
H        2.36422200       3.45513600       0.48920900
H        3.41743200       3.16221800      -0.91992400
H        1.03576200       2.64247100      -2.88995100
H        2.55169800       1.68476800      -2.74803800
H        0.97954300       0.88959600      -2.51046100
H        0.64332200       2.22332300      -0.52531100
