49
2msa1nta2tma-1
N       -3.37493100      -0.84608000       0.02542400
C       -3.91390200       0.22243900      -0.85028600
H       -3.39176900       1.15759200      -0.64584600
H       -3.75218500      -0.06589700      -1.88974700
H       -4.98339500       0.33748300      -0.65763600
C       -4.03997000      -2.14854200      -0.22091700
H       -3.91984500      -2.40666600      -1.27328700
H       -3.54852700      -2.90198400       0.39471300
H       -5.09976800      -2.06681500       0.03111300
C       -3.43300200      -0.47551300       1.46073300
H       -2.92623500      -1.25521800       2.02854600
H       -2.91277600       0.47125500       1.59163600
H       -4.48048200      -0.38840500       1.76036400
N        2.15316100      -0.39881700      -1.91146600
C        1.11370600      -0.42533700      -2.96964300
H        0.47895100      -1.29476700      -2.80021100
H        0.51686500       0.48301800      -2.88005200
H        1.60541000      -0.47183900      -3.94464900
C        2.97520300       0.83652100      -1.96976700
H        2.30549200       1.69248200      -1.88331200
H        3.67128300       0.81903200      -1.13070800
H        3.51044800       0.85961100      -2.92220800
C        2.99293700      -1.62242200      -1.91827000
H        3.67187000      -1.56905000      -1.06662100
H        2.33470300      -2.48403100      -1.81059600
H        3.54797100      -1.66359100      -2.85884500
N       -0.50156100      -2.42840800      -0.12922700
O       -1.07660200      -2.57822200       0.96653000
O        0.56334800      -2.99350300      -0.39098000
O       -1.03681400      -1.66340900      -1.00029200
H       -2.36269100      -1.01384800      -0.25281700
S       -0.78213200       2.55822600      -0.25509100
O       -2.09806000       3.13870100      -0.48760600
O        0.10408100       2.35668500      -1.39959700
O       -1.03642900       1.18425500       0.47165800
H       -0.15365200       0.62023300       0.54307200
C        0.08927100       3.50599600       0.97195400
H        0.39288400       4.44324600       0.50441400
H       -0.59555600       3.68891700       1.79983800
H        0.95066700       2.92445200       1.31271700
S        2.10129000      -0.07175600       1.64636700
O        1.91279700       1.12165500       2.47742400
O        3.43178800      -0.27040800       1.05444900
O        1.05131800      -0.11199600       0.52752500
H        1.65863000      -0.37252800      -0.98405700
C        1.71559300      -1.51356400       2.61806800
H        0.72565000      -1.37778300       3.05286100
H        1.71432400      -2.37602700       1.94964900
H        2.47609200      -1.60679300       3.39402400
49
2msa1nta2tma-2
N       -0.74294500       2.70068000      -0.34525800
C       -2.11464800       2.91911000       0.18874100
H       -2.80799800       2.31813200      -0.39933600
H       -2.12651900       2.61013300       1.23542200
H       -2.35255000       3.98142900       0.10097200
C        0.23574500       3.56429600       0.36575800
H        0.14405900       3.38584700       1.43561800
H        1.23441500       3.29900000       0.02460000
H        0.00148800       4.60508600       0.13071300
C       -0.67899000       2.90308800      -1.82049800
H        0.33707200       2.67556000      -2.14118300
H       -1.38935600       2.21645100      -2.28160300
H       -0.93819700       3.94210300      -2.03654800
H       -0.51430100       1.69848700      -0.18721000
N        0.41562600      -2.74485100      -0.09708900
C        1.66015700      -2.96235200       0.68738800
H        2.47495400      -2.43722800       0.19450900
H        1.51537200      -2.55943100       1.68827100
H        1.85096200      -4.03765300       0.72140500
C       -0.71385900      -3.52082600       0.48052800
H       -0.86454000      -3.19322600       1.50945700
H       -1.60132300      -3.32789000      -0.12205200
H       -0.45380300      -4.58126900       0.45321600
C        0.61940100      -3.05915700      -1.54037200
H       -0.31870100      -2.86402900      -2.05940600
H        1.40938900      -2.40608100      -1.91100600
H        0.90697400      -4.10978500      -1.62528200
H        0.13960900      -1.74107200      -0.05348600
N       -0.54149400       0.16572700       2.47008000
O       -0.23105700      -1.01281600       2.52121000
O       -1.60376400       0.64155100       2.81532500
O        0.35482100       1.03659500       2.01523400
H        1.17373900       0.53112400       1.56142100
S        2.78404000       0.40820400      -0.44744100
O        2.04378100       1.57069800      -0.96897200
O        2.84395300      -0.76018400      -1.33707500
O        2.31094500       0.01748900       0.93672000
C        4.46910200       0.94186800      -0.19134500
H        4.87731800       1.23330400      -1.15950100
H        4.46497900       1.78693500       0.49741700
H        5.03258900       0.10784000       0.22705900
S       -2.31083700      -0.54183000      -0.94011700
O       -2.27927200      -1.84587400      -1.62673200
O       -2.82630700       0.58252100      -1.74267300
O       -0.97954700      -0.21151800      -0.30649700
C       -3.44023300      -0.73303200       0.43635800
H       -4.41853000      -0.99205700       0.03032800
H       -3.06974500      -1.52416100       1.08957200
H       -3.48538900       0.20389700       0.99178400
49
2msa1nta2tma-3
N        3.14071400      -0.94764900       0.28411500
C        3.82583200      -0.05000500       1.24930700
H        3.52718200       0.97686800       1.04224600
H        3.52134300      -0.33275000       2.25714800
H        4.90490900      -0.17057100       1.12967500
C        3.53596400      -2.36529700       0.47597600
H        3.31171100      -2.65523900       1.50115500
H        2.94794500      -2.97721400      -0.20727400
H        4.60362300      -2.46431000       0.26809500
C        3.35625800      -0.51749800      -1.12157700
H        2.71386400      -1.12626300      -1.75631100
H        3.10104000       0.53823100      -1.21201100
H        4.40893900      -0.67015600      -1.37117200
N       -1.62713900      -0.37860900      -2.19991100
C       -2.46614200       0.82756000      -2.42436300
H       -3.19980300       0.88584300      -1.61939500
H       -1.81367300       1.70020700      -2.40373900
H       -2.96451600       0.73023700      -3.39146100
C       -0.54989100      -0.50227400      -3.21250100
H        0.07206600       0.39110600      -3.15329100
H        0.03569900      -1.38769300      -2.96860900
H       -1.00999800      -0.59777800      -4.19879700
C       -2.44677800      -1.61557300      -2.09615900
H       -1.79044000      -2.43655400      -1.80644300
H       -3.19469700      -1.46077300      -1.31760600
H       -2.92244700      -1.79969300      -3.06219700
N        0.13261700      -2.40884300       0.33253500
O        0.59892500      -2.06531200      -0.79402600
O       -0.91426300      -3.06164100       0.40272400
O        0.75100200      -2.05892300       1.36721500
H        2.12016100      -0.91085500       0.48254400
S       -2.38527500       0.28539600       1.44774300
O       -3.58145100      -0.00609900       0.66259100
O       -2.25133800       1.60095400       2.06142900
O       -1.16417900       0.02489100       0.49177200
H       -0.22037300       0.49988700       0.72187800
C       -2.17513400      -0.97468300       2.68185200
H       -3.02995500      -0.92036500       3.35688800
H       -2.11618200      -1.93634400       2.16850200
H       -1.24124900      -0.77472400       3.20706600
S        1.09282900       2.25242000      -0.19902800
O        2.50263700       2.61780300      -0.39103300
O        0.99764300       1.07650800       0.76909100
O        0.32902800       1.97401300      -1.42933700
H       -1.18647200      -0.25172900      -1.27131000
C        0.26860300       3.58931100       0.64231600
H        0.82679200       3.81221400       1.55173200
H        0.25750100       4.45050500      -0.02644600
H       -0.74347400       3.26175500       0.88998600
