64
3sa3dma1tma-21
S        3.05096600      -0.59643300       0.29262000
O        2.81791000       0.54730700       1.38970000
O        2.83484900       0.07026500      -1.03077400
O        1.97264500      -1.60540000       0.51377400
O        4.40123400      -1.08144800       0.50565000
H        1.16386100      -1.80839800      -1.08880700
H        1.83266300       0.74127000       1.50575700
S       -0.46928900       2.00021300       0.95353800
O       -0.60655600       1.48191000      -0.47599000
O        0.28965500       3.27976900       0.91237700
O       -1.83411000       2.14950500       1.53718900
O        0.30026300       0.96698400       1.74176100
H       -0.81592200       0.01962700      -0.43587500
H       -2.94187200       1.66678300       0.38781100
S       -2.23548200      -1.61525600      -0.98671100
O       -3.17196600      -1.84963400       0.12074200
O       -0.89908200      -1.00323400      -0.32265500
O       -1.73791500      -2.84616700      -1.63694700
O       -2.70313100      -0.57779700      -1.94007400
N       -3.62040100       1.52466000      -0.40455400
H       -3.22186600       0.78227500      -1.02305100
C       -4.91465700       1.04584100       0.12142400
H       -4.75311600       0.06456000       0.56907800
H       -5.28697000       1.75448600       0.86310700
H       -5.62616400       0.95403700      -0.70099100
C       -3.68181400       2.79474300      -1.15337400
H       -4.07179500       3.57789300      -0.50146500
H       -2.66777200       3.04713100      -1.46357300
H       -4.32667700       2.67267200      -2.02537700
N        0.94896300      -2.23313100      -2.01495200
H        0.00204200      -2.65363400      -1.90810300
C        0.86338600      -1.17654900      -3.04788000
H        0.08655300      -0.47116200      -2.75380400
H        1.82566800      -0.66896200      -3.10096800
H        0.60020600      -1.63742300      -4.00141400
C        1.97471300      -3.25845500      -2.28865100
H        2.95121900      -2.77407800      -2.33240900
H        1.97001500      -3.98392700      -1.47568400
H        1.75215700      -3.75312700      -3.23546000
C        1.73106600       3.18350500      -2.14174200
N        2.27797900       2.73292900      -0.84791800
C        3.58776600       3.30773900      -0.48426400
H        1.56798300       2.96188500      -0.10403300
H        2.40487000       2.88172600      -2.94595500
H        0.75283600       2.71677900      -2.26298000
H        1.62437500       4.26960500      -2.13096500
H        4.31896400       3.05457000      -1.25371100
H        3.49553200       4.39119400      -0.39195800
H        3.89463100       2.87220600       0.46684100
H        2.38279700       1.69172400      -0.87870900
N       -0.27290800      -1.67147600       2.43142200
C       -1.59044700      -1.17483700       2.91104800
C       -0.34074600      -3.08546200       1.98741600
C        0.79498600      -1.46336200       3.44193600
H        0.62428300      -3.34849600       1.55535500
H       -0.56180600      -3.71295500       2.85368600
H       -1.13145000      -3.18231500       1.24391600
H       -1.49769100      -0.10651600       3.10618500
H       -2.32660700      -1.35008800       2.12497800
H       -1.85681900      -1.72204500       3.81839100
H        0.82940800      -0.40229400       3.68459600
H        0.55722300      -2.05712500       4.32730900
H        1.74429200      -1.77373200       3.00697900
H       -0.02546400      -1.09686500       1.60864200
64
3sa3dma1tma-39
S       -1.05750400      -2.44685900      -0.29964500
O       -2.30323500      -2.14632600       0.42763100
O       -0.93252800      -3.79776900      -0.84119000
O       -1.03079900      -1.49620000      -1.59907500
O        0.13881500      -2.03353700       0.50392300
H        1.27590600       0.39777800      -0.71208900
H       -0.80224300      -0.56030200      -1.33230400
S        3.18749700       0.12430100       0.35887900
O        2.35469500      -0.11374400       1.54995900
O        2.18863200       0.04940600      -0.91272400
O        3.77852200       1.48149900       0.32428900
O        4.15295800      -0.94935700       0.07051100
S       -1.16860900       1.92939600      -0.21812200
O       -0.29531500       2.90745700       0.50580900
O       -1.98343500       1.15355000       0.81267300
O       -2.07754800       2.55780600      -1.19064800
O       -0.25837400       0.92740100      -0.91623100
C        2.53314400       4.69565300      -0.20101300
N        2.07208100       3.36823700      -0.64895100
C        1.90196000       3.24466400      -2.11212300
H        2.74637100       2.64204800      -0.30749300
H        1.79772700       5.44855200      -0.48913600
H        2.63674100       4.68082500       0.88398000
H        3.49879300       4.91988700      -0.65746300
H        1.15788300       3.96974400      -2.44625700
H        2.85905700       3.42517900      -2.60443200
H        1.55026000       2.23709800      -2.33051500
H        1.14304600       3.15989000      -0.18739900
C        0.23913100       1.06797800       3.28077100
N       -0.26126300      -0.08795600       2.50655800
C       -0.79136600      -1.19339500       3.32879500
H       -0.99790600       0.25878300       1.84729900
H        1.11224800       0.76213500       3.85712900
H        0.50781600       1.85481900       2.57685800
H       -0.55669700       1.42163200       3.93888700
H        0.01623300      -1.60600600       3.93567700
H       -1.57996000      -0.80468100       3.97609300
H       -1.19275800      -1.95370000       2.66069700
H        0.49965800      -0.44046500       1.90252900
C        2.50989200      -4.32662800      -0.07630900
N        2.36721300      -2.97748300      -0.65717600
C        2.14346300      -2.96952800      -2.12010600
H        1.53391000      -2.52478600      -0.19672200
H        3.34995600      -4.84220800      -0.54527500
H        2.68749200      -4.22703500       0.99465700
H        1.58061600      -4.87290900      -0.24672500
H        2.98759600      -3.45221800      -2.61626800
H        1.21319600      -3.49958400      -2.33033000
H        2.06028200      -1.93122600      -2.43798200
H        3.17786700      -2.37245600      -0.41848700
N       -4.27972000       0.34666500      -0.28220400
C       -4.97923100       1.65492300      -0.25814700
C       -4.01341100      -0.10138200      -1.67409500
C       -4.99634700      -0.68768100       0.50042100
H       -3.43478000      -1.02352800      -1.63537200
H       -4.96828200      -0.25963400      -2.18181700
H       -3.43341300       0.67685800      -2.17180700
H       -5.12047600       1.95629900       0.78046600
H       -4.34554600       2.38406700      -0.76465400
H       -5.94694700       1.55227900      -0.75524800
H       -5.10835300      -0.33368200       1.52634700
H       -5.98105200      -0.85067500       0.05509300
H       -4.40020900      -1.59989900       0.48615800
H       -3.33686700       0.52235700       0.17196000
64
3sa3dma1tma-25
S        2.95729400       0.43511400       0.70505900
O        2.56358000       0.64315400      -0.73073200
O        2.30086800      -0.79617500       1.21509200
O        2.33175700       1.67085000       1.50376000
O        4.39305500       0.51364500       0.92483300
H        1.33871100       1.55911400       1.62307400
H        1.76744700       2.10138700      -0.95885600
S       -1.61343600      -2.15589900      -0.77144800
O       -0.26936500      -1.33248400      -0.43555000
O       -1.13629900      -3.52184700      -0.96763800
O       -2.21090500      -1.52078000      -1.96949300
O       -2.49042800      -1.96431000       0.41984100
H        1.99740600      -1.73715500      -0.39887600
H       -0.44570300      -0.33463300      -0.48274300
S       -1.13339800       1.96707300       0.67544900
O       -0.86226500       1.16926400      -0.58525000
O       -0.80016300       3.39059900       0.41090100
O       -2.55526000       1.75676100       1.08465600
O       -0.23509100       1.43130200       1.77931900
H       -0.68474400      -0.06454300       2.25924200
H       -3.30466200       0.90706700      -0.14703600
N       -1.14740100      -0.95163800       2.58676600
H       -1.64787000      -1.33756600       1.75543000
C       -0.12571100      -1.92285600       3.02416400
H        0.59572900      -2.03704800       2.21570200
H        0.38852400      -1.53190400       3.90353100
H       -0.60855700      -2.87337200       3.25900600
C       -2.14675300      -0.58224400       3.60833500
H       -1.63399700      -0.17252700       4.48005800
H       -2.79752500       0.18012400       3.17789100
H       -2.72197600      -1.46543800       3.89241700
N       -3.77518000       0.52310300      -1.00459800
H       -3.13066800      -0.19804900      -1.40185300
C       -5.03816900      -0.13754300      -0.62460000
H       -4.79258300      -0.96398400       0.04258400
H       -5.68668700       0.58272900      -0.12260100
H       -5.52908500      -0.52280000      -1.52003500
C       -3.91609600       1.63212100      -1.96651600
H       -4.55995100       2.40204600      -1.53838900
H       -2.92303100       2.04403200      -2.14673800
H       -4.34482600       1.25566300      -2.89700700
N        1.43196700       3.07603600      -1.15846900
H        0.63014400       3.26644100      -0.50996600
C        2.54144800       4.00813700      -0.87795600
H        2.84608200       3.86675300       0.15907100
H        3.37933000       3.77691300      -1.53767800
H        2.20509000       5.03379800      -1.03938400
C        0.91828000       3.11107100      -2.54039800
H        1.72046900       2.84390600      -3.23081900
H        0.10485700       2.38779900      -2.60427400
H        0.54909600       4.11317200      -2.76608100
N        2.39739400      -2.48551700      -1.00144400
C        2.01077800      -3.77200800      -0.36794800
C        1.84508400      -2.34342100      -2.37230400
C        3.87138400      -2.29451000      -0.99373200
H        1.99137400      -1.30962900      -2.68462600
H        2.38047100      -3.02812800      -3.03418100
H        0.78474000      -2.58526400      -2.35411300
H        2.39236400      -3.77156600       0.65376000
H        0.92228800      -3.85148900      -0.37702800
H        2.45599400      -4.59175200      -0.93642800
H        4.22080200      -2.29681000       0.03803700
H        4.32998100      -3.10636500      -1.56230500
H        4.09881700      -1.32772700      -1.44171300
