64
3sa1ma3eda-30
S        3.80776200      -1.71691400      -0.59536100
O        4.46275400      -0.77358800      -1.52426500
O        3.62319300      -1.12750500       0.75126400
O        2.61420000      -2.38900300      -1.11560900
O        4.85280400      -2.94591400      -0.41805000
H        5.72751200      -2.57198900      -0.24706100
S       -2.45264100      -1.81318000       1.16915700
O       -0.99251600      -2.15247800       1.10595200
O       -3.00540200      -1.82781400      -0.21566700
O       -3.20847900      -2.55246000       2.15524000
O       -2.51240800      -0.28202700       1.65298300
H       -1.99264500       0.32425500       1.04373500
S       -0.38954000       1.48560500      -0.93574600
O        0.81731500       0.65635100      -0.51377500
O       -1.07064600       0.72274100      -2.05160100
O       -1.33734800       1.54149000       0.23970900
O        0.03218300       2.82878600      -1.35467000
C       -0.61793400      -3.00927500      -2.36581900
N       -0.10058600      -1.90274300      -1.53750500
H        0.93173400      -1.89642900      -1.50119800
H       -0.43299800      -0.97354300      -1.85830300
H       -0.19257900      -3.94662500      -2.00819700
H       -1.70298800      -3.03760500      -2.26632500
H       -0.33114200      -2.85022100      -3.40531200
H       -0.42832500      -2.00910600      -0.55702100
C        2.79170600       3.43042500       0.55282100
N        2.56067900       4.27020700      -0.62340500
C        3.71555100       2.26991600       0.17633400
N        3.22821000       1.68325200      -1.09522200
H        2.74002700       5.24847000      -0.44441000
H        1.60250200       4.15982100      -0.94832600
H        3.26537100       3.99542400       1.36145400
H        1.85555400       3.02657800       0.95377100
H        3.72421900       1.47521600       0.92532500
H        4.73869700       2.61553000       0.00744700
H        2.25996600       1.29159100      -0.95240900
H        3.82487800       0.90110300      -1.41871800
H        3.16193400       2.44209100      -1.78034500
C        0.13275300       0.87361900       3.59143200
N        0.24058800       2.06877800       2.75737000
C        1.25830200      -0.10252400       3.27023400
N        1.14657100      -0.59991500       1.87944800
H       -0.01537600       2.90044600       3.27402900
H       -0.37102300       2.01886300       1.94237700
H        0.23624100       1.14736100       4.64583700
H       -0.83452900       0.36379500       3.48217100
H        1.23632300      -0.96921000       3.93571900
H        2.22416700       0.39895400       3.36391600
H        0.34066800      -1.24387500       1.75245400
H        2.01684100      -1.06194300       1.55985300
H        1.00136100       0.15626200       1.18032300
C       -5.77478300       0.88676300      -0.33389500
N       -6.49814700       0.54883000      -1.56205500
C       -4.39652800       1.42326300      -0.69606000
N       -3.70992300       0.41759000      -1.53984700
H       -6.97133700       1.35694800      -1.95156500
H       -7.19649300      -0.16660000      -1.40139100
H       -6.28860700       1.62121700       0.29921300
H       -5.65082800      -0.02406800       0.26040100
H       -3.77857700       1.60562300       0.18207300
H       -4.46520900       2.35184000      -1.26971900
H       -3.53089700      -0.46257800      -0.99675100
H       -2.75822200       0.71588100      -1.86423400
H       -4.32685600       0.18460300      -2.32145700
64
3sa1ma3eda-4
S        1.83181400      -2.28688300      -0.19316200
O        1.19539100      -1.75665800      -1.45029700
O        2.11232600      -1.10724500       0.73094500
O        0.88623300      -3.22338600       0.47765500
O        3.14633200      -2.93817400      -0.50365100
H        4.34781100      -2.06114400      -0.08691400
S       -2.72312100       0.98750100      -0.54653800
O       -2.61578400       1.50557400       0.84741800
O       -1.48497000       0.21007800      -0.87243700
O       -3.95543200       0.26292800      -0.82660100
O       -2.72938800       2.24542200      -1.51680300
H       -1.91437200       2.78978200      -1.33485500
S        0.23197500       3.57725000       0.36746000
O       -0.40871900       3.41846400      -0.96765100
O        1.05388900       2.34376900       0.65413600
O        0.94948800       4.81161900       0.58618500
O       -0.95152200       3.55103100       1.44946100
H       -1.61459200       2.85198000       1.21634300
N        5.10739500      -1.38742300       0.27828400
H        4.82326900      -0.42539200      -0.05023800
H        6.00684900      -1.63706000      -0.12519200
C        5.12614000      -1.43661100       1.75748700
H        4.11443400      -1.20996200       2.09381800
H        5.39931500      -2.44059200       2.08229000
H        5.83571700      -0.70674400       2.14901900
C       -0.75637300      -0.04975200       2.99211200
N       -0.09231200       0.08839900       1.68016600
C       -1.53006600      -1.35448700       3.10909600
N       -2.53814000      -1.45442500       2.05273600
H        0.31215000       1.03573200       1.53535200
H       -0.75515300      -0.02069500       0.89664900
H        0.01086700       0.00610900       3.76675300
H       -1.42764800       0.80515200       3.10456500
H       -1.95899800      -1.38475200       4.12011600
H       -0.84236200      -2.20288500       3.01395400
H       -3.07114300      -0.59058600       1.96448900
H       -3.20428900      -2.20059600       2.22958200
H        0.70846000      -0.56560600       1.50236600
C       -2.42846300      -3.59963700      -1.13108000
N       -1.60278900      -2.57890000      -0.45289900
C       -3.81843900      -3.05261800      -1.43790900
N       -4.49334100      -2.62235300      -0.21218400
H       -0.65663100      -2.93623700      -0.17804900
H       -2.05505100      -2.22076700       0.42079000
H       -1.90714100      -3.90377000      -2.04233700
H       -2.49796100      -4.45954600      -0.46070500
H       -4.38246000      -3.84786400      -1.93584300
H       -3.73145800      -2.22272600      -2.15135500
H       -5.44069500      -2.97601100      -0.17273300
H       -4.54352900      -1.60550100      -0.19663300
H       -1.45458700      -1.73965000      -1.02811700
C        2.18724300       1.41925300      -2.48794000
N        1.03044800       0.90659400      -1.72183300
C        3.48116100       0.77240700      -1.99083800
N        3.76833300       0.94324300      -0.56593800
H        0.12884900       1.17858300      -2.11370600
H        1.03015100       1.33056300      -0.77165900
H        2.03781600       1.18138800      -3.54389500
H        2.20570800       2.50642900      -2.37187800
H        4.31114300       1.18284600      -2.57417400
H        3.43436000      -0.30313100      -2.19719500
H        3.02162600       0.52339100      -0.00509200
H        3.82307800       1.92543000      -0.31187700
H        1.04865900      -0.14670400      -1.62858400
64
3sa1ma3eda-32
S        3.82357000      -1.09304500      -1.06682800
O        2.76187500      -1.87270700      -1.72993100
O        4.22735000       0.10679500      -1.82577700
O        3.58313200      -0.83349200       0.36240800
O        5.12448600      -2.06395800      -1.03417100
H        5.34235000      -2.30541400      -1.94465700
S       -2.25378000      -2.59111000       0.85270700
O       -0.76272100      -2.68761000       0.65895700
O       -2.89325300      -2.27813900      -0.44959900
O       -2.82776900      -3.67997900       1.61099700
O       -2.45755700      -1.28381800       1.77503200
H       -2.07422900      -0.47874100       1.32923500
S       -0.77764500       1.37001900      -0.42273500
O       -1.38476500       0.71434900      -1.64765700
O       -1.60587900       0.98333400       0.77713000
O        0.60719100       0.78184100      -0.24491000
O       -0.72737200       2.83691300      -0.57206900
C       -0.52195100      -2.66352400      -2.88832800
N       -0.03582200      -1.75019100      -1.83542900
H        0.99219700      -1.64032700      -1.85688700
H       -0.48448300      -0.81618200      -1.89414200
H       -0.00264100      -3.61739500      -2.79820700
H       -1.59181800      -2.81431900      -2.74355300
H       -0.32395100      -2.22906000      -3.86832900
H       -0.28980900      -2.12901700      -0.89809100
C        2.19084700       3.39729600       1.33796400
N        1.70131900       4.41226800       0.40238400
C        3.28307400       2.56311200       0.66172200
N        2.81793500       2.21873900      -0.70377500
H        1.71022500       5.34186700       0.79870900
H        0.75445300       4.18893700       0.10117700
H        2.61568800       3.85389800       2.23684500
H        1.38702700       2.73111600       1.67028600
H        3.48492800       1.62775400       1.18747300
H        4.21313500       3.12810300       0.56015400
H        1.92205100       1.67170600      -0.62961600
H        3.49033000       1.62451600      -1.22111000
H        2.60519100       3.09526800      -1.18850000
C        0.13525900      -0.22322900       3.80633800
N        0.03807100       1.14647100       3.30352300
C        1.33616400      -0.93052400       3.19021100
N        1.17826500      -1.05323100       1.72169700
H       -0.27801400       1.77900600       4.02757400
H       -0.62410600       1.21568900       2.53114600
H        0.29100800      -0.20969700       4.88925800
H       -0.77210700      -0.81245900       3.61566500
H        1.45729000      -1.93773000       3.59640800
H        2.24556200      -0.35461100       3.37541700
H        0.44291000      -1.74183500       1.45653200
H        2.06811500      -1.29727100       1.25491400
H        0.90983600      -0.16016500       1.26620900
C       -4.38314100       2.36706500      -1.88705200
N       -4.10501500       2.94983700      -0.57802400
C       -4.87771000       0.92555700      -1.71204600
N       -3.91319100       0.23263800      -0.83265400
H       -4.68213900       3.75265500      -0.37045400
H       -3.12745500       3.20634900      -0.46997100
H       -5.14206200       2.93021200      -2.43971000
H       -3.47400000       2.35349600      -2.49756600
H       -4.92717500       0.39480300      -2.66543700
H       -5.85940400       0.89829900      -1.23293800
H       -2.94304800       0.29704500      -1.23408600
H       -4.06707600      -0.76836600      -0.64742700
H       -3.84702300       0.74954300       0.05316400
