61
3sa1ma2dma1tma-5
S       -1.45843100      -2.32118500      -0.46461900
O       -2.40770100      -1.87650000      -1.50881200
O       -2.03601600      -2.15707200       0.89680100
O       -0.83134900      -3.61954200      -0.70982000
O       -0.20726000      -1.29690500      -0.51470000
H       -0.53541800      -0.33729700      -0.51699900
S        2.78072800       0.63751100       0.79675700
O        2.14119500       0.48275600      -0.55796500
O        2.42304700      -0.53493000       1.63879700
O        4.20445100       0.92513100       0.73223000
O        2.10952400       1.93283500       1.43457800
H        1.10588000       1.83201900       1.53036800
S       -1.38048900       2.04237400       0.55996400
O       -1.01975600       3.41298000       0.10282700
O       -1.16884100       1.08228300      -0.59514600
O       -0.44302900       1.64200900       1.69177100
O       -2.78648300       1.93395500       1.03293900
C       -0.21491900      -1.11464700       3.99673000
N       -0.20183100      -0.88206700       2.54193700
H       -0.85773200      -1.49783600       2.02172400
H       -0.46654000       0.10442000       2.29919300
H        0.07303200      -2.14496900       4.20716900
H        0.49074500      -0.43304200       4.47160400
H       -1.21783500      -0.92938100       4.38124700
H        0.75195200      -0.97036800       2.14663000
C        0.55837500       2.71099900      -2.83487300
N        1.10352200       2.86693400      -1.47310800
C        2.24109900       3.80030100      -1.35459300
H        0.31567600       3.17042200      -0.83885100
H        1.33751000       2.32892100      -3.49750700
H       -0.27340700       2.00847600      -2.77583800
H        0.20531500       3.67865300      -3.19541400
H        3.06181800       3.45242200      -1.98426900
H        1.92454400       4.79737900      -1.66513800
H        2.56287400       3.81300200      -0.31308900
H        1.40830900       1.92970900      -1.12736300
C       -5.02778600      -0.71293200       0.30633000
N       -4.03724400       0.06768900      -0.45928100
C       -4.59927200       0.89875800      -1.53990200
H       -3.51222200       0.71048700       0.18747400
H       -5.58876000      -1.35364800      -0.37631400
H       -4.48442400      -1.33130800       1.02108200
H       -5.70420600      -0.03084500       0.82427200
H       -5.09557600       0.25904300      -2.27181200
H       -5.30921500       1.61065800      -1.11604900
H       -3.77740300       1.43939100      -2.00936600
H       -3.34458000      -0.59744500      -0.86977800
N        2.46210000      -2.31196000      -1.03955700
C        2.29764200      -3.32354300       0.03908700
C        1.88081500      -2.77888400      -2.32546900
C        3.88516500      -1.91496200      -1.19696100
H        1.91818900      -1.95542200      -3.03909300
H        2.47404400      -3.62069900      -2.68935600
H        0.85009000      -3.08673700      -2.15066500
H        2.64349200      -2.87363200       0.96944200
H        1.24227500      -3.59233500       0.09877300
H        2.89730200      -4.20023400      -0.21659800
H        4.27050100      -1.56923900      -0.23825900
H        4.44989700      -2.78178800      -1.54653700
H        3.94401500      -1.09811100      -1.91480400
H        1.93613000      -1.46058300      -0.75955100
61
3sa1ma2dma1tma-14
S       -2.89553200      -0.12120900       0.01421000
O       -2.08772300       0.87340900       0.76588900
O       -3.07650300      -1.36500900       0.81215300
O       -2.01370900      -0.54541100      -1.26145600
O       -4.12088900       0.42071600      -0.56389800
H       -1.06441300      -0.75518100      -0.98690900
H        1.17939300       0.28428500      -0.96082100
S        0.84727900      -2.47055900      -0.23312000
O        0.37749700      -2.73520200       1.16336700
O        0.42962900      -1.03207200      -0.57127000
O        2.32737800      -2.57426200      -0.35281900
O        0.16498400      -3.39623800      -1.18551000
H       -1.33112700      -3.59316300      -0.73117700
S        1.84087800       2.07956100       0.08032600
O        1.59227100       1.16261000      -1.22555300
O        0.58743500       2.02354400       0.86810300
O        2.97302200       1.42956100       0.79795400
O        2.14628700       3.39660300      -0.47136300
H       -1.32632200       2.55086300       0.10638500
N       -2.36248900      -3.65720900      -0.45973000
H       -2.58900800      -2.81871400       0.12649900
H       -2.49119900      -4.49282500       0.10537800
C       -3.21688800      -3.65366800      -1.66716500
H       -3.02596900      -2.72205000      -2.19940400
H       -2.95983900      -4.50393700      -2.29902700
H       -4.26677500      -3.69685100      -1.37668300
C        1.15162200      -0.04252600       3.09229800
N       -0.12845200      -0.39300700       2.44377900
C       -1.25048200      -0.56200800       3.39055100
H       -0.37506300       0.32251700       1.74022500
H        1.43559800      -0.85570900       3.76267400
H        1.90993300       0.10999900       2.32557500
H        1.02896300       0.88709500       3.64960700
H       -0.98032100      -1.33083700       4.11696400
H       -1.43442600       0.38521100       3.90000400
H       -2.13322400      -0.86300800       2.82748200
H        0.00883000      -1.29049200       1.91253500
C        4.41590700      -0.28994700      -1.95938700
N        4.10276200      -0.62958700      -0.55737200
C        5.24303400      -1.16147100       0.21203000
H        3.72011100       0.21413700      -0.06775600
H        4.71510000      -1.19547700      -2.48977500
H        3.52141400       0.13695400      -2.41199800
H        5.22303600       0.44469800      -1.98289800
H        5.60618300      -2.07327700      -0.26475200
H        6.03837200      -0.41503700       0.25228700
H        4.90174400      -1.39375900       1.22079700
H        3.32911100      -1.35161100      -0.52848400
N       -1.62555300       3.31627900      -0.52892500
C       -3.08577500       3.51672300      -0.33442300
C       -0.86041800       4.54517300      -0.19212200
C       -1.32011800       2.83512700      -1.90388300
H        0.20403300       4.36224300      -0.34381500
H       -1.21186600       5.35470000      -0.83606700
H       -1.04550100       4.79128000       0.85366900
H       -3.61225800       2.58837100      -0.55936300
H       -3.26191700       3.78982000       0.70616300
H       -3.41301500       4.32265500      -0.99518700
H       -1.85728700       1.90077000      -2.07048700
H       -1.63978100       3.59654800      -2.61855800
H       -0.24711600       2.65935100      -1.98218500
61
3sa1ma2dma1tma-6
S       -1.47185100      -2.18721400      -0.89322000
O       -2.54810800      -1.75686500      -1.80931100
O       -1.98510700      -2.36240900       0.48939600
O       -0.64829700      -3.31512500      -1.36313800
O       -0.40345200      -0.99137700      -0.83633600
H       -0.82848400      -0.05719100      -0.84366600
S        2.94907900      -0.19627200       1.18973300
O        2.68595700       0.06355500      -0.26113500
O        2.15499100      -1.38475200       1.61852100
O        4.35116100      -0.23703600       1.55537500
O        2.33934300       1.06078200       1.97822700
H        1.45459700       1.32816000       1.61544200
S       -1.30213200       1.99878900       0.53808900
O       -1.97624400       1.03834000       1.49717400
O        0.16647800       2.09210100       0.91847600
O       -1.35585200       1.35649600      -0.84381600
O       -1.93984300       3.31381700       0.51368300
C       -0.48219400      -1.28686500       3.83519100
N       -0.44666900      -1.07133600       2.37753100
H       -0.88128100      -0.16201300       2.11108800
H        0.53557800      -1.12067400       2.02615700
H       -1.51237600      -1.23056900       4.18761100
H       -0.06284300      -2.26603000       4.06607700
H        0.11480900      -0.51509800       4.32069600
H       -0.99303800      -1.76726400       1.83873900
C       -4.60556200       1.13412000      -0.70209500
N       -3.96861100      -0.05253200      -0.09006000
C       -4.88715900      -0.92902200       0.66512600
H       -3.49696900      -0.62050700      -0.82553800
H       -5.02969600       1.75691900       0.08650400
H       -3.83456500       1.69385100      -1.23085900
H       -5.38707400       0.80706300      -1.38995900
H       -5.30971200      -0.36862000       1.50071700
H       -5.68503900      -1.26980500       0.00338700
H       -4.31265700      -1.78332600       1.02309000
H       -3.20684800       0.28046000       0.54914000
C        2.10385800      -2.08220500      -2.76172300
N        1.98066500      -2.41069400      -1.32795900
C        3.06057300      -3.26996000      -0.79951500
H        1.98300500      -1.51277200      -0.80262100
H        2.11053900      -3.00298800      -3.34639200
H        1.24173100      -1.47711500      -3.04240700
H        3.02931000      -1.52558800      -2.91872400
H        3.05171700      -4.22537800      -1.32635300
H        4.01630300      -2.76374200      -0.94386600
H        2.89108300      -3.41043100       0.26721400
H        1.04819400      -2.84887800      -1.18695000
N        1.45462800       2.83729000      -1.31112700
C        2.85534900       3.16314700      -0.94493700
C        1.37802900       1.87913800      -2.44047300
C        0.64646900       4.05579800      -1.57015500
H        0.33001800       1.61547100      -2.58445300
H        1.79225300       2.35239000      -3.33450800
H        1.95015800       0.99480900      -2.16446100
H        2.84355200       3.78857500      -0.05180100
H        3.37728400       2.23012700      -0.73285200
H        3.32535700       3.69738400      -1.77424100
H        0.65369500       4.67665900      -0.67447100
H        1.07594600       4.59450700      -2.41803100
H       -0.38032700       3.75420700      -1.77731200
H        1.00977100       2.38836200      -0.46418900
