36
2dma1msa1sa
S        1.77703200       1.27667600      -0.56765300
O        1.42555000       0.69241400       0.77263700
O        3.19534500       1.45635900      -0.79243100
O        1.34026300       0.12980300      -1.62500800
O        0.90014500       2.44270400      -0.83106800
H       -0.46642200       2.18865200       0.08255000
S       -1.79052500      -1.22676600      -0.38195500
O       -2.00258400      -0.62759100       0.96383500
O       -0.90978100      -2.42150400      -0.35321200
O       -1.35289800      -0.19936300      -1.36657700
H        0.35488400       0.04079600      -1.62849800
C       -3.37586700      -1.81508500      -0.94348400
H       -3.73284600      -2.55824600      -0.23036100
H       -4.05968900      -0.96741800      -0.99150700
H       -3.24060900      -2.25891000      -1.92976400
N        1.56174800      -1.97144400       0.72730500
C        2.75508700      -2.38173600      -0.04122200
C        1.45984200      -2.54520000       2.08208300
H        1.54854800      -0.91583600       0.79297500
H        2.75379800      -3.46609600      -0.16594100
H        2.71714800      -1.88499600      -1.01076700
H        3.65154300      -2.06498500       0.49397400
H        1.43169700      -3.63418800       2.01564500
H        2.31974000      -2.22910400       2.67502200
H        0.53835600      -2.18248800       2.53828300
H        0.68874600      -2.20720400       0.20670000
N       -1.26661700       2.06248700       0.75326800
C       -2.48793700       2.63988500       0.16129000
C       -0.86594800       2.64024500       2.05133700
H       -1.41024100       1.03755500       0.86183700
H       -2.33378900       3.70567000      -0.01409700
H       -2.67410000       2.13066100      -0.78452400
H       -3.32772100       2.48885100       0.84178800
H       -0.70194800       3.71201600       1.92977700
H       -1.65033700       2.46057900       2.78877300
H        0.06382400       2.15760600       2.35243800
36
2dma1msa1sa-3
S        1.80886700       1.32860300      -0.44891400
O        2.41331100       2.64344100      -0.49758200
O        0.68822800       1.36911000      -1.62074900
O        2.70471500       0.18660700      -0.74984800
O        1.02645100       1.03317400       0.79739000
H       -0.46387800       1.71215200       0.85558000
S       -1.81186200      -1.32806600      -0.35405600
O       -2.21436800      -1.03679600       1.03177700
O       -0.66721300      -2.26881700      -0.47539600
O       -1.58481700      -0.07054600      -1.14444000
H        0.02975000       0.64405800      -1.51556300
C       -3.17750200      -2.14661000      -1.15714000
H       -4.04580300      -1.48937200      -1.10629300
H       -2.89924500      -2.33902000      -2.19323300
H       -3.36919800      -3.07994000      -0.62750200
N        1.81758500      -1.99707600       0.55619400
C        1.84867900      -1.79778800       2.01915500
C        2.52310100      -3.20299300       0.08352600
H        0.82332700      -2.04394000       0.23234000
H        2.88675600      -1.74042500       2.35145000
H        1.34174500      -0.85822000       2.23561800
H        1.34248900      -2.63215000       2.50785600
H        3.58122100      -3.12732200       0.33920600
H        2.08642300      -4.08684200       0.55153100
H        2.41059600      -3.26931900      -0.99853900
H        2.21851500      -1.14898900       0.07756800
N       -1.43853200       2.06189100       0.65187300
C       -1.33322400       3.38675100       0.00205600
C       -2.26325000       2.03085400       1.87610200
H       -1.77431200       1.35416400      -0.02945600
H       -0.88332900       4.09067200       0.70348300
H       -0.69381000       3.28741000      -0.87546300
H       -2.32862000       3.72980000      -0.28554400
H       -1.80498300       2.67375400       2.62934300
H       -3.26723300       2.39205800       1.64545000
H       -2.31314800       0.99849700       2.22180600
36
2dma1msa1sa-2
S       -1.02365600      -1.81002200      -0.53593700
O       -2.47438200      -1.93015300      -0.29714600
O       -0.32748700      -2.97873400      -1.05288100
O       -0.96951700      -0.63390200      -1.64471300
O       -0.34696600      -1.21504300       0.66746900
H        1.24354400      -1.28220700       0.68362600
S        1.11294000       1.89996400      -0.21262100
O        2.04526300       1.54293600       0.88750600
O       -0.27625400       2.16435700       0.23823500
O        1.17875400       0.91384200      -1.33071800
H       -0.12348900      -0.11890200      -1.58107700
C        1.70628500       3.44225900      -0.88264100
H        1.69214500       4.18566600      -0.08558800
H        2.72143700       3.28574300      -1.24743200
H        1.04441100       3.73527700      -1.69774100
N       -2.57342400       0.71883900       0.60767900
C       -3.50696200       1.61388700      -0.10227100
C       -2.69836500       0.71705300       2.07910600
H       -2.68678400      -0.25925100       0.26013400
H       -3.31278500       2.64397000       0.19910700
H       -3.33299200       1.50307600      -1.17235600
H       -4.53432000       1.33545800       0.13805000
H       -2.48522600       1.71783000       2.45697400
H       -3.70855800       0.41194900       2.35679700
H       -1.96938200       0.00613100       2.46750400
H       -1.60245000       1.01972200       0.37667800
N        2.30048600      -1.21131600       0.72319900
C        2.85672400      -1.72243800      -0.54879900
C        2.78043100      -1.90871400       1.92923100
H        2.45139500      -0.18534800       0.80389700
H        2.47421800      -2.72926300      -0.72078000
H        2.52052200      -1.06035800      -1.34638600
H        3.94721100      -1.72517500      -0.49341700
H        2.52881700      -2.96749600       1.85201700
H        3.86171200      -1.78935300       2.01950500
H        2.28861800      -1.47791300       2.80150500
