1sa_2dma.log
 OpenBabel02271919103D
Gaussian 09 # opt freq wB97XD/6-31++G(d,p)
 27 24  0  0  0  0  0  0  0  0999 V2000
    0.0326   -0.7310   -0.0263 S   0  0  0  0  0  0  0  0  0  0  0  0
   -0.7728    0.0861   -1.1369 O   0  0  0  0  0  0  0  0  0  0  0  0
   -0.8990   -1.6735    0.5879 O   0  0  0  0  0  0  0  0  0  0  0  0
    0.5503    0.2950    0.9410 O   0  0  0  0  0  0  0  0  0  0  0  0
    1.1635   -1.3390   -0.7760 O   0  0  0  0  0  0  0  0  0  0  0  0
   -1.7268    0.2234   -0.7851 H   0  0  0  0  0  0  0  0  0  0  0  0
    2.5925   -0.4536   -0.4775 H   0  0  0  0  0  0  0  0  0  0  0  0
    4.1625    0.0138    0.8414 C   0  0  0  0  0  0  0  0  0  0  0  0
    4.9790   -0.3196    0.1983 H   0  0  0  0  0  0  0  0  0  0  0  0
    3.8700   -0.7935    1.5130 H   0  0  0  0  0  0  0  0  0  0  0  0
    4.4833    0.8785    1.4251 H   0  0  0  0  0  0  0  0  0  0  0  0
    3.0000    0.3796    0.0165 N   0  0  0  0  0  0  0  0  0  0  0  0
    3.2183    1.4706   -0.9507 C   0  0  0  0  0  0  0  0  0  0  0  0
    2.1438    0.5871    0.6049 H   0  0  0  0  0  0  0  0  0  0  0  0
    3.9999    1.1847   -1.6566 H   0  0  0  0  0  0  0  0  0  0  0  0
    2.2824    1.6407   -1.4841 H   0  0  0  0  0  0  0  0  0  0  0  0
    3.5109    2.3776   -0.4190 H   0  0  0  0  0  0  0  0  0  0  0  0
   -3.1320    0.2386    0.0511 N   0  0  0  0  0  0  0  0  0  0  0  0
   -4.3884    0.3485   -0.6800 C   0  0  0  0  0  0  0  0  0  0  0  0
   -3.0002    1.2078    1.1376 C   0  0  0  0  0  0  0  0  0  0  0  0
   -3.0206   -0.7001    0.4304 H   0  0  0  0  0  0  0  0  0  0  0  0
   -4.4345    1.3227   -1.1766 H   0  0  0  0  0  0  0  0  0  0  0  0
   -4.4329   -0.4278   -1.4472 H   0  0  0  0  0  0  0  0  0  0  0  0
   -5.2696    0.2544   -0.0275 H   0  0  0  0  0  0  0  0  0  0  0  0
   -2.9979    2.2181    0.7167 H   0  0  0  0  0  0  0  0  0  0  0  0
   -3.8185    1.1376    1.8693 H   0  0  0  0  0  0  0  0  0  0  0  0
   -2.0466    1.0451    1.6457 H   0  0  0  0  0  0  0  0  0  0  0  0
  1  3  2  0  0  0  0
  1  4  1  0  0  0  0
  2  6  1  0  0  0  0
  2  1  1  0  0  0  0
  5  1  2  0  0  0  0
  7 12  1  0  0  0  0
  8 11  1  0  0  0  0
  8 10  1  0  0  0  0
  9  8  1  0  0  0  0
 12 14  1  0  0  0  0
 12  8  1  0  0  0  0
 13 17  1  0  0  0  0
 13 12  1  0  0  0  0
 15 13  1  0  0  0  0
 16 13  1  0  0  0  0
 18 21  1  0  0  0  0
 18 20  1  0  0  0  0
 19 24  1  0  0  0  0
 19 18  1  0  0  0  0
 20 27  1  0  0  0  0
 20 26  1  0  0  0  0
 22 19  1  0  0  0  0
 23 19  1  0  0  0  0
 25 20  1  0  0  0  0
M  RAD  1   4   2
M  END
$$$$
