4dma.log
 OpenBabel02271919103D
Gaussian opt/gaussian/g09/g09 # opt=(maxcycle=1000) freq wb97xd/6-31++g(d,p) geo
 40 36  0  0  0  0  0  0  0  0999 V2000
   -2.0469    0.3169    0.3823 N   0  0  0  0  0  0  0  0  0  0  0  0
   -1.2957    0.9969    0.2126 H   0  0  0  0  0  0  0  0  0  0  0  0
   -0.9983   -1.2934   -0.2156 H   0  0  0  0  0  0  0  0  0  0  0  0
   -0.3179   -2.0448   -0.3829 N   0  0  0  0  0  0  0  0  0  0  0  0
   -0.7757   -3.2680    0.2520 C   0  0  0  0  0  0  0  0  0  0  0  0
   -0.1055   -2.1957   -1.8118 C   0  0  0  0  0  0  0  0  0  0  0  0
   -2.1985    0.1124    1.8123 C   0  0  0  0  0  0  0  0  0  0  0  0
   -3.2705    0.7716   -0.2542 C   0  0  0  0  0  0  0  0  0  0  0  0
   -3.0809    0.9691   -1.3132 H   0  0  0  0  0  0  0  0  0  0  0  0
   -3.6848    1.6894    0.1994 H   0  0  0  0  0  0  0  0  0  0  0  0
   -4.0398   -0.0069   -0.1902 H   0  0  0  0  0  0  0  0  0  0  0  0
   -2.9188   -0.6926    2.0013 H   0  0  0  0  0  0  0  0  0  0  0  0
   -2.5497    1.0102    2.3503 H   0  0  0  0  0  0  0  0  0  0  0  0
   -1.2380   -0.1898    2.2419 H   0  0  0  0  0  0  0  0  0  0  0  0
    0.6963   -2.9204   -1.9974 H   0  0  0  0  0  0  0  0  0  0  0  0
   -1.0020   -2.5408   -2.3559 H   0  0  0  0  0  0  0  0  0  0  0  0
    0.2050   -1.2365   -2.2385 H   0  0  0  0  0  0  0  0  0  0  0  0
   -1.6909   -3.6833   -0.2060 H   0  0  0  0  0  0  0  0  0  0  0  0
    0.0034   -4.0373    0.1933 H   0  0  0  0  0  0  0  0  0  0  0  0
   -0.9792   -3.0774    1.3097 H   0  0  0  0  0  0  0  0  0  0  0  0
    2.0437   -0.3169    0.3883 N   0  0  0  0  0  0  0  0  0  0  0  0
    1.2925   -0.9979    0.2228 H   0  0  0  0  0  0  0  0  0  0  0  0
    2.2067   -0.1150    1.8174 C   0  0  0  0  0  0  0  0  0  0  0  0
    3.2631   -0.7682   -0.2586 C   0  0  0  0  0  0  0  0  0  0  0  0
    1.2491    0.1829    2.2561 H   0  0  0  0  0  0  0  0  0  0  0  0
    2.5655   -1.0131    2.3502 H   0  0  0  0  0  0  0  0  0  0  0  0
    2.9261    0.6917    2.0024 H   0  0  0  0  0  0  0  0  0  0  0  0
    4.0311    0.0123   -0.2014 H   0  0  0  0  0  0  0  0  0  0  0  0
    3.6835   -1.6849    0.1917 H   0  0  0  0  0  0  0  0  0  0  0  0
    3.0646   -0.9668   -1.3158 H   0  0  0  0  0  0  0  0  0  0  0  0
    0.3163    2.0447   -0.3826 N   0  0  0  0  0  0  0  0  0  0  0  0
    0.9970    1.2951   -0.2080 H   0  0  0  0  0  0  0  0  0  0  0  0
    0.1165    2.1924   -1.8136 C   0  0  0  0  0  0  0  0  0  0  0  0
    0.7670    3.2706    0.2524 C   0  0  0  0  0  0  0  0  0  0  0  0
    1.6855    3.6854   -0.1994 H   0  0  0  0  0  0  0  0  0  0  0  0
   -0.0125    4.0388    0.1848 H   0  0  0  0  0  0  0  0  0  0  0  0
    0.9619    3.0833    1.3123 H   0  0  0  0  0  0  0  0  0  0  0  0
    1.0160    2.5428   -2.3495 H   0  0  0  0  0  0  0  0  0  0  0  0
   -0.6883    2.9117   -2.0081 H   0  0  0  0  0  0  0  0  0  0  0  0
   -0.1835    1.2308   -2.2421 H   0  0  0  0  0  0  0  0  0  0  0  0
  1  7  1  0  0  0  0
  2  1  1  0  0  0  0
  4  3  1  0  0  0  0
  4  5  1  0  0  0  0
  5 20  1  0  0  0  0
  6  4  1  0  0  0  0
  7 12  1  0  0  0  0
  7 14  1  0  0  0  0
  7 13  1  0  0  0  0
  8 11  1  0  0  0  0
  8 10  1  0  0  0  0
  8  1  1  0  0  0  0
  9  8  1  0  0  0  0
 15  6  1  0  0  0  0
 16  6  1  0  0  0  0
 17  6  1  0  0  0  0
 18  5  1  0  0  0  0
 19  5  1  0  0  0  0
 21 23  1  0  0  0  0
 22 21  1  0  0  0  0
 23 27  1  0  0  0  0
 23 25  1  0  0  0  0
 23 26  1  0  0  0  0
 24 28  1  0  0  0  0
 24 29  1  0  0  0  0
 24 21  1  0  0  0  0
 30 24  1  0  0  0  0
 31 32  1  0  0  0  0
 31 34  1  0  0  0  0
 33 31  1  0  0  0  0
 34 37  1  0  0  0  0
 35 34  1  0  0  0  0
 36 34  1  0  0  0  0
 38 33  1  0  0  0  0
 39 33  1  0  0  0  0
 40 33  1  0  0  0  0
M  END
$$$$
