54
3sa3ma1eda-20
S        3.25231700      -1.77457000       0.32358300
O        2.35393400      -2.73706300      -0.33867200
O        4.10478200      -1.02679800      -0.62147500
O        2.59776600      -0.91192200       1.32319600
O        4.25257600      -2.66726200       1.23824400
H        4.66430600      -3.33382900       0.67162900
S       -3.10847900      -1.74590300       0.15860000
O       -3.29708200      -0.65558100       1.15938500
O       -1.71963000      -2.29831700       0.30879200
O       -4.15080200      -2.74378500       0.10263900
O       -3.11754300      -1.03576800      -1.28449100
H       -2.53277700      -0.22325400      -1.31269000
S       -0.53885900       1.70387700      -0.84917300
O       -0.86248200       1.93011400       0.62408500
O       -1.78193500       1.19975700      -1.52827500
O       -0.01884000       2.92894100      -1.46948500
O        0.50993900       0.59832000      -0.88873800
C       -0.32225800      -2.23740500      -3.13194700
N        0.06466300      -1.95266200      -1.73666700
H       -0.66211000      -2.26354200      -1.06025300
H        0.95606400      -2.38550100      -1.44350100
H       -1.27980900      -1.75671400      -3.33118300
H        0.43895800      -1.84471100      -3.80585800
H       -0.41859800      -3.31426800      -3.26876200
H        0.18185000      -0.92963000      -1.55854000
C       -0.48106300      -0.71201300       3.21574800
N       -0.15491800      -0.54698200       1.78586200
H       -0.41068700       0.39843600       1.43520200
H        0.85092100      -0.69873500       1.59190500
H       -1.55965000      -0.61023100       3.33673000
H       -0.16837600      -1.70385100       3.54135900
H        0.04160300       0.04636500       3.79899000
H       -0.70245800      -1.22990700       1.22242300
C       -4.53910300       2.78156800       1.19503100
N       -3.56473100       1.92246400       0.50042700
H       -2.55857600       2.13353700       0.71503600
H       -3.65301400       0.90462500       0.74656500
H       -4.36878700       3.82359100       0.92405500
H       -5.55053500       2.48670000       0.91565500
H       -4.41254200       2.65868200       2.27039300
H       -3.61053300       1.98244500      -0.51943500
C        3.27343600       2.22695700       0.66951100
N        3.04799500       1.54618900      -0.62855700
C        2.39513500       3.47946500       0.71729900
N        2.51722400       4.21115900      -0.54377700
H        3.65064100       0.71173200      -0.74109200
H        3.19508300       2.24281100      -1.36613500
H        3.04390200       1.51280400       1.46171400
H        4.33355900       2.48881000       0.71756400
H        2.71197000       4.08647500       1.57129800
H        1.35442300       3.18543100       0.89308500
H        2.80164000       5.17207800      -0.41337700
H        1.63244400       4.18527600      -1.04530800
H        2.05744700       1.20220300      -0.71213700
54
3sa3ma1eda-37
S       -2.60171200       1.71799300       0.20828800
O       -2.70899300       1.12850800      -1.16219200
O       -2.16993700       3.13493700       0.17011800
O       -1.28601000       1.01830800       0.83667200
O       -3.74359300       1.40974000       1.05737100
H        0.94203600       2.33180900       0.81923700
H       -1.35196800      -0.00500700       0.81414000
S       -0.68880900      -2.33576400      -0.28082600
O       -1.37952600      -1.48434300       0.77129700
O        0.01464900      -1.42857300      -1.26051300
O        0.34339700      -3.17968100       0.40991000
O       -1.72222000      -3.14911800      -0.97873100
H       -3.02138000      -2.13102500      -1.15704900
S        3.02373200       0.73673200       0.40601600
O        3.51299100      -0.58775500       0.92704100
O        1.60242000       0.92604000       0.99083000
O        3.85339300       1.88517900       0.77112800
O        2.84617500       0.61672300      -1.09500500
N       -3.80116800      -1.41730700      -1.10155600
H       -4.40958800      -1.52098900      -1.91020100
H       -3.37197000      -0.46085100      -1.14396900
C       -4.54509700      -1.59160300       0.17169300
H       -5.05493800      -2.55503700       0.15705400
H       -3.81146200      -1.56818800       0.97554900
H       -5.24969100      -0.77082300       0.29657700
C        3.51477500      -2.32825800      -2.18248900
N        2.61345800      -2.28999000      -1.01553400
H        3.03448100      -1.72215200      -0.23704400
H        1.69473200      -1.83734000      -1.23382900
H        4.43638600      -2.84580000      -1.91540300
H        3.02342100      -2.84464200      -3.00766400
H        3.73875600      -1.29697500      -2.45423900
H        2.35029800      -3.20919500      -0.65721100
C        0.28846500      -1.34243300       3.53724800
N        1.16894100      -1.36901800       2.35274800
H        2.16027600      -1.47786200       2.57381800
H        0.88910000      -2.12932200       1.68945000
H        0.55285100      -0.49207800       4.16590600
H       -0.73717000      -1.24714500       3.18315100
H        0.39928600      -2.27129200       4.09710300
H        1.14387200      -0.46249900       1.82002700
C        0.22444000       2.63845600      -1.90557500
N        0.31944700       1.19782400      -1.58893200
C        1.03188100       3.48549600      -0.92748900
N        0.58066000       3.28751900       0.47831500
H       -0.20290000       0.60319200      -2.23151400
H       -0.09143200       0.98338900      -0.66654000
H        0.63163800       2.79656500      -2.90629800
H       -0.82996000       2.92070400      -1.89346200
H        0.89807200       4.53552500      -1.19447700
H        2.09544900       3.23547000      -0.96608200
H       -0.46342200       3.31607900       0.53962300
H        0.98556300       3.99609500       1.08634900
H        1.33016400       0.87315900      -1.51766400
54
3sa3ma1eda-23
S       -3.23386100      -1.55995600       0.46164000
O       -1.89903500      -2.22690700       0.28047500
O       -3.53173600      -0.75283400      -0.75643700
O       -4.28650900      -2.43865200       0.91472000
O       -3.01043900      -0.50734400       1.65651300
H       -2.41210100       0.25218400       1.39386300
S        3.07246500      -2.09647400      -0.48189500
O        4.12198200      -1.19437100       0.03373100
O        2.28918100      -2.74578700       0.58581600
O        2.27140000      -1.48157700      -1.55226400
O        3.83350100      -3.30243700      -1.25516400
H        4.29833500      -3.83673300      -0.59684400
S       -0.44136500       1.89460800       0.22819000
O        0.62806700       0.84984400       0.52845300
O       -0.90459500       1.65913700      -1.20196400
O       -1.60895700       1.63802400       1.14335400
O        0.09565200       3.25219000       0.38877300
C       -4.59030000       2.65199000      -1.59065200
N       -3.57373200       1.92103200      -0.81480000
H       -3.46606900       2.25031100       0.14824300
H       -3.74918500       0.88681700      -0.75853200
H       -4.32679800       3.70870700      -1.63646000
H       -4.62681000       2.24077800      -2.59916000
H       -5.56513000       2.53326100      -1.11779300
H       -2.59950700       1.97827300      -1.19903500
C       -1.00893000      -1.44986400      -3.09133800
N       -0.48012600      -1.02599600      -1.78003700
H       -0.62482100      -0.00493100      -1.61992600
H       -0.98778800      -1.52153100      -1.01909300
H       -0.52343500      -0.87627600      -3.88093900
H       -0.80806300      -2.51157100      -3.23330000
H       -2.08524800      -1.27733000      -3.10118400
H        0.53168400      -1.22400600      -1.68441100
C       -0.04132500      -1.41104800       3.35648100
N        0.16996200      -1.47075800       1.89695000
H        0.29698100      -0.52054400       1.48011900
H        1.00195800      -2.01601500       1.61309600
H       -0.94863300      -0.84008600       3.55265100
H       -0.15460900      -2.42204900       3.74725100
H        0.81398800      -0.92611200       3.82692500
H       -0.65115400      -1.88514200       1.40835500
C        3.88023200       2.21724300       0.79243000
N        3.17798100       1.39893100      -0.22324800
C        3.15106900       3.55609500       0.92832400
N        2.85031200       4.08756100      -0.40067900
H        3.64600200       0.48593700      -0.36661100
H        3.12796200       1.95505200      -1.08236100
H        3.89499300       1.65851700       1.73023800
H        4.90828700       2.35349700       0.44679600
H        3.77721500       4.23436100       1.51710900
H        2.21632500       3.40036000       1.47457200
H        3.28800800       4.98197700      -0.57460200
H        1.84311100       4.17820500      -0.50812400
H        2.18532200       1.19706200       0.06538900
