25
1msa1fa1am1ma-1
S        1.62438400      -0.01201100      -0.12685500
O        1.33065600      -1.28341900      -0.84279200
O        1.49568200      -0.11801100       1.34002300
O        0.82072900       1.11245100      -0.70015500
C        3.32639000       0.38055800      -0.48027500
H        3.94564500      -0.43430800      -0.10498000
H        3.43611200       0.48606200      -1.55942500
H        3.56844600       1.31450400       0.02718600
H       -2.85854600       3.05271000       0.54657800
H       -0.23750900       2.02809100      -0.02880200
C       -2.14385400       2.29147400       0.20669400
O       -0.91459800       2.70239100       0.31182300
O       -2.52493400       1.20498400      -0.20782900
N       -1.41320200      -1.33789300      -0.53912800
H       -1.34566300      -1.62234500       0.47596600
H       -1.70014400      -0.34097800      -0.54247000
C       -2.35273100      -2.17342000      -1.30628500
H       -2.35987700      -1.85354000      -2.34834400
H       -2.04058000      -3.21653600      -1.24811700
H       -3.35373900      -2.06618200      -0.88779200
H       -0.43257100      -1.39153300      -0.88743200
N       -0.79215800      -1.83730100       2.16751200
H       -0.51827300      -2.76741200       2.46750000
H       -1.35767400      -1.43331300       2.90721500
H        0.06264500      -1.27553000       2.08455300
25
1msa1fa1am1ma-2
S       -1.58054900       0.10204400      -0.21159900
O       -2.34390700      -1.03391400       0.32723200
O       -0.89484600      -0.17561800      -1.50248200
O       -0.60305000       0.63570100       0.80023800
C       -2.74006100       1.41874100      -0.52897700
H       -3.46030800       1.06128900      -1.26515600
H       -3.23741400       1.66062000       0.41039400
H       -2.19230600       2.27993900      -0.91246500
H        2.99204600       3.05397100       0.25338600
H        0.44510400       1.74876200       0.57911600
C        2.32214400       2.18478900       0.28994500
O        1.08863900       2.53448900       0.51671100
O        2.74704300       1.04901200       0.13070400
N        1.39691100      -1.34321600      -0.45174900
H        0.60259800      -1.01165100      -1.03838900
H        1.89131100      -0.48428700      -0.14734500
C        2.28992900      -2.27186500      -1.16509000
H        3.09335100      -2.58608300      -0.49824800
H        1.72079300      -3.14495700      -1.48568900
H        2.71666500      -1.77528600      -2.03659000
H        0.95586700      -1.78775800       0.40156700
N       -0.04123000      -2.32616500       1.77428000
H        0.00459100      -3.22818300       2.23594600
H       -0.98314000      -2.19677900       1.39566500
H        0.06674300      -1.60398200       2.48117000
25
1msa1fa1am1ma-4
S        1.56399300      -0.20265600      -0.11094300
O        1.39395800      -0.41438900       1.33686900
O        1.84889800       1.18805900      -0.50980700
O        0.37079400      -0.72722900      -0.89011900
C        2.93902300      -1.20814100      -0.63883200
H        3.05997400      -1.08534700      -1.71504500
H        3.82654600      -0.86076400      -0.10936900
H        2.72335700      -2.24666200      -0.38693300
H       -3.07814700      -2.86786000       0.79238600
H       -0.63434500      -1.77147100      -0.25961100
C       -2.43982000      -2.05623200       0.41955900
O       -1.26300000      -2.49275200       0.07352000
O       -2.84981400      -0.90537500       0.35743600
N       -1.41253000       1.36816500      -0.42439800
H       -0.68839600       0.80777000      -0.90598700
H       -2.08352600       0.65374100      -0.09094800
C       -2.02313500       2.38758200      -1.29360800
H       -2.77628400       2.94001800      -0.73109800
H       -1.24783700       3.07334300      -1.63571800
H       -2.49115900       1.90803000      -2.15355500
H       -0.92806700       1.80089300       0.41761800
N        0.14165600       2.32900300       1.70127900
H       -0.07762900       2.96255600       2.46212300
H        0.95102400       2.68460000       1.19661000
H        0.45362300       1.43769800       2.09053600
