58
3sa2ma1dma1tma-3
S       -2.90850500       0.25603100       0.49529400
O       -2.94547100      -0.95452600       1.36466600
O       -4.19086800       0.90531500       0.26860900
O       -1.82398500       1.17553600       0.93159100
O       -2.46197100      -0.27838500      -0.95877800
H       -1.47672600      -0.51291000      -0.94892500
H        1.15109400       0.35515600      -0.92169900
S        0.51758600      -2.25982000      -0.78972400
O        0.05870500      -0.79213600      -0.87038100
O        1.77612800      -2.40255700      -1.57090000
O        0.74826700      -2.56034500       0.66124800
O       -0.56564900      -3.11509200      -1.35409700
H       -1.90008700      -3.22832300      -0.54743800
S        2.15496900       1.78768700       0.41255500
O        3.14390400       2.80350000       0.09306800
O        1.83272400       1.09596200      -1.00807600
O        2.65734600       0.67113900       1.28203600
O        0.86682000       2.28393900       0.94345200
H       -0.65844800       2.68242500      -0.06549000
N       -2.85656600      -3.25848300      -0.07107000
H       -2.91068400      -2.42078700       0.55827400
H       -2.90959100      -4.10174700       0.49484600
C       -3.93326000      -3.19791800      -1.08512400
H       -3.81210200      -2.26392100      -1.63271700
H       -3.83947000      -4.04445800      -1.76528700
H       -4.90575600      -3.21007900      -0.59239500
C       -0.39635900      -0.56686400       3.54722800
N        0.15071100      -0.34256200       2.19723900
H        0.24880600      -1.22817900       1.65284600
H       -0.47340800       0.29513500       1.66290100
H        0.22656300      -1.28541700       4.08092900
H       -0.41594800       0.37970700       4.08749800
H       -1.41245800      -0.94747200       3.44275600
H        1.08739600       0.08612000       2.19269700
C        4.24107000      -2.46992300       0.67590100
N        3.78182700      -1.35430800      -0.17357500
C        4.82710900      -0.71213800      -0.99372300
H        3.00790100      -1.72450200      -0.79469800
H        4.95996700      -2.10101900       1.40991400
H        3.36575000      -2.89235100       1.17138000
H        4.70532900      -3.23187600       0.04758400
H        5.60834400      -0.31569900      -0.34287200
H        5.24739000      -1.44632900      -1.68302400
H        4.36699100       0.10475500      -1.55039600
H        3.34429300      -0.61952900       0.42590500
N       -0.99238700       3.32178200      -0.81578900
C        0.01179000       4.41198400      -0.92134400
C       -1.05760800       2.52418900      -2.06934700
C       -2.32752000       3.84189500      -0.42212500
H       -1.78008700       1.71897500      -1.93785000
H       -1.36034700       3.18294000      -2.88634500
H       -0.06863200       2.10599600      -2.25904700
H        0.09925100       4.90275800       0.04709600
H        0.97867400       3.98571600      -1.18635100
H       -0.32039100       5.11929200      -1.68437900
H       -2.23305900       4.34271300       0.54136600
H       -2.66313600       4.54837200      -1.18467400
H       -3.02624900       3.01101900      -0.32834400
58
3sa2ma1dma1tma-7
S       -2.27406500      -2.25480200      -0.16985800
O       -2.65201400      -1.22668200       0.82792800
O       -0.86244600      -2.71027400       0.08795300
O       -3.21646500      -3.33824200      -0.36299200
O       -2.19260200      -1.49242900      -1.58934200
H       -1.98177200      -0.51647200      -1.47872200
S        3.87666800      -0.83266900       0.50115900
O        3.30741600      -1.96021100      -0.25891800
O        4.52336300       0.18131800      -0.35647800
O        2.97224000      -0.24861600       1.50573100
O        5.05251900      -1.47568100       1.41808700
H        5.64270200      -1.97834900       0.84032600
S       -0.61737500       1.62938500      -0.59109700
O       -0.30103800       3.02943500      -0.91661600
O       -1.02679700       1.47903000       0.85763100
O       -1.72724200       1.07526800      -1.44333400
O        0.62497700       0.76005200      -0.80117300
C       -0.15358300      -1.11150400       3.20106300
N        0.21072500      -0.79270200       1.80854500
H        1.22766000      -0.65006400       1.68935000
H       -0.10378500      -1.55739400       1.17854300
H        0.12191700      -0.27841500       3.84826600
H       -1.22969800      -1.28129600       3.24100700
H        0.37325600      -2.01138900       3.51842900
H       -0.27627800       0.07365600       1.48015200
C        0.74892500      -2.08042200      -3.17570300
N        0.92788700      -1.77066200      -1.74481600
H        0.26236300      -2.30584700      -1.14701000
H        1.88143500      -1.94914200      -1.39038300
H       -0.28985500      -1.88545100      -3.44112400
H        1.41328900      -1.45220000      -3.76928400
H        0.98072600      -3.13097300      -3.35083800
H        0.73130100      -0.76714500      -1.52872900
C        2.55804400       2.99440300       0.90433600
N        2.76142300       2.33776100      -0.40496800
C        2.85697400       3.27199800      -1.54519000
H        3.58293200       1.70752200      -0.36723400
H        1.60782600       3.52962700       0.87381900
H        2.53370100       2.21561200       1.66643600
H        3.38365600       3.68196300       1.09775600
H        1.90511900       3.79735700      -1.63294300
H        3.67946600       3.96996300      -1.37771300
H        3.04150200       2.69507900      -2.45176800
H        1.94090800       1.69414600      -0.57131200
N       -3.85811400       1.30971000       0.58194000
C       -4.72572000       0.64510100      -0.42325700
C       -4.28565800       1.01193600       1.96986300
C       -3.75510800       2.77019400       0.33337800
H       -3.57337100       1.47577000       2.65282100
H       -5.28613600       1.41944900       2.13078300
H       -4.27424800      -0.06924000       2.10109200
H       -4.29204200       0.81666900      -1.40779800
H       -4.74465000      -0.42254500      -0.21089800
H       -5.72776100       1.07545100      -0.35932200
H       -3.39104300       2.92038200      -0.68243900
H       -4.74147600       3.21989800       0.46675100
H       -3.03306500       3.18933000       1.03273300
H       -2.90021000       0.92068100       0.48632300
58
3sa2ma1dma1tma-4
S        3.16022200      -1.04922900       0.46824800
O        3.58557100      -2.40743200       0.06407300
O        4.23236100      -0.04360800       0.39622400
O        2.13798700      -0.54539700      -0.67614800
O        2.39707400      -1.05164000       1.73207300
H       -0.59906900       0.59185500      -1.16640100
H        1.18401200      -0.79864700      -0.50295500
S       -0.57813400       2.58517000      -0.30323400
O       -0.56440600       1.52821700      -1.51430000
O       -0.25733400       3.85760600      -0.93314300
O       -1.88317600       2.46367300       0.36181900
O        0.52184300       2.12018900       0.62456000
H        2.02224800       2.10092500      -0.09606300
S       -1.47628600      -1.86160900      -0.07159800
O       -2.42882100      -2.20121100      -1.14150700
O       -0.38570700      -0.93766100      -0.61414600
O       -2.18854000      -1.08463500       1.02820400
O       -0.80416800      -3.04852400       0.53647400
H        0.56709400      -3.55800400      -0.08255900
N        1.42010700      -3.90597600      -0.61638300
H        1.52942700      -4.89878600      -0.42345700
H        2.27614200      -3.40074300      -0.27548700
C        1.21649500      -3.64695600      -2.06171600
H        0.29213300      -4.12495000      -2.38585500
H        1.13001500      -2.56964900      -2.19774800
H        2.06846200      -4.02462100      -2.62679400
C       -0.17030300       0.44639400       3.76273800
N       -0.06021800       0.08763600       2.33872700
H        0.76100800      -0.51571700       2.15657000
H       -0.91612300      -0.38283300       1.97377900
H        0.75964100       0.91247500       4.08867800
H       -0.99498400       1.14762500       3.89221900
H       -0.35346800      -0.45236700       4.35192600
H        0.09335300       0.92670600       1.73685100
N        2.95565700       2.27647000      -0.54230500
H        3.55869700       1.47942200      -0.25538900
C        2.76831400       2.27837200      -2.01089200
H        2.40733900       1.29355200      -2.30189200
H        2.02498600       3.03558800      -2.26547000
H        3.72304000       2.49317200      -2.49426700
C        3.46885500       3.55005400       0.00022200
H        2.74479600       4.33661000      -0.21796100
H        3.58615000       3.44797500       1.07905500
H        4.43260200       3.78119900      -0.45652700
N       -4.26074400       0.18461800      -0.09785100
C       -4.76137000       1.28517200       0.75941600
C       -3.91332300       0.66213300      -1.46277500
C       -5.19816400      -0.96406500      -0.14713200
H       -3.46853500      -0.17236700      -2.00560800
H       -4.82554600       1.00828700      -1.95531700
H       -3.19443200       1.47495800      -1.36793400
H       -4.93821300       0.89348400       1.76223900
H       -4.00249100       2.06706700       0.78939100
H       -5.69555100       1.66668600       0.33991200
H       -5.38566700      -1.30647500       0.87116600
H       -6.13173200      -0.64471800      -0.61661300
H       -4.71975700      -1.76217800      -0.71574800
H       -3.37650300      -0.19732200       0.34568800
