36
1sa1nta2eda-201
S       -0.13010400       1.58403800       0.47076100
O       -0.85975800       0.78878100       1.68574500
O       -0.92985600       2.78117700       0.29742900
O        1.27308300       1.79108400       0.89822200
O       -0.18217500       0.61612000      -0.66960200
H        2.17207400       0.35664500       0.79095000
H       -1.56402400      -0.30066200      -0.78503100
N        0.06246100      -2.60735600       0.36624700
O        1.29079900      -2.78968800       0.22363900
O       -0.74434900      -3.13888800      -0.42492100
O       -0.36353900      -1.89019300       1.30398300
H       -0.53334500      -0.13546700       1.68427500
H       -4.18770300      -1.30550200       0.21169400
H       -2.89804800      -0.56206800       1.18910300
H       -4.68587000       1.11216500       0.60314400
H       -3.10917500       1.55717700      -0.04476900
H       -5.38666500       0.56651000      -1.57262200
H       -4.29937100       1.72947200      -1.95076800
H       -2.01518600      -1.90309700      -0.66967300
H       -2.83909100      -0.83877300      -1.72659900
C       -3.39169600      -0.55563000       0.21830200
C       -3.92269100       0.82997200      -0.13210200
N       -2.39639800      -0.94625500      -0.80954700
N       -4.40721700       0.82169900      -1.51547500
H        3.33686400      -1.15712500      -1.45435400
H        1.98385500       0.00435900      -1.47642800
H        4.12565900       1.09590400      -2.24027500
H        3.48692000       1.82319300      -0.75981000
H        5.78722300       0.01970300      -0.92725000
H        5.64997400       1.44532300      -0.13597900
H        2.19364200      -1.34442200       0.57488400
H        3.63564000      -0.47920700       0.88386400
C        2.94975600      -0.22893900      -1.02564200
C        3.94163700       0.91795000      -1.17331400
N        2.72053300      -0.45763200       0.42343800
N        5.14813700       0.60725900      -0.40265700
36
1sa1nta2eda-190
S       -0.71652800      -1.75740800      -0.13777700
O       -2.00619900      -2.36362000       0.14216100
O       -0.91486500      -1.09751400      -1.60783200
O       -0.38472100      -0.58683400       0.74508000
O        0.44455000      -2.66462200      -0.22134200
H       -1.41543300       0.67440400       0.67628700
H        1.90536800      -1.75281200       0.23068400
N        0.88282600       1.67601900      -1.08778600
O       -0.16789400       2.21793900      -1.47684300
O        1.52512000       2.12152200      -0.12615500
O        1.29127300       0.62716200      -1.68207200
H       -0.14505100      -0.52171800      -1.81883200
H       -3.67361300       1.88636600      -0.82833100
H       -2.77202300       0.39388000      -1.20488800
H       -4.97706200      -0.10937500      -0.08517400
H       -3.59105500      -0.68533400       0.83638200
H       -5.25891800       1.63370000       1.48440100
H       -4.68618500       0.46370500       2.47180700
H       -1.43430500       2.14225500      -0.10609000
H       -2.42108700       1.91086700       1.27588100
C       -3.17640500       1.01117200      -0.40099700
C       -4.11169400       0.21768700       0.50383700
N       -2.03654000       1.49342800       0.42288000
N       -4.45948200       1.03743100       1.66883500
H        4.15648300      -1.60767300       1.26744200
H        4.25190200      -1.46924800      -0.50612200
H        5.57287500       0.31519900       0.74646400
H        4.37982100       0.96332600      -0.38144000
H        4.50406200       1.57169000       2.28376300
H        3.17877800       1.79278000       1.33074300
H        2.08411500      -0.40686100       1.19198600
H        2.12850400      -0.26006900      -0.44981100
C        3.90593400      -0.98178000       0.40799300
C        4.49955400       0.41903900       0.56380100
N        2.43509200      -0.86458700       0.34605400
N        3.84593600       1.10834900       1.67251600
36
1sa1nta2eda-111
S        0.76928600       1.89974200       0.00325300
O        0.32674100       0.77526100      -1.11188800
O        1.76383300       2.70336800      -0.67983700
O       -0.48598400       2.60274200       0.36198600
O        1.27735400       1.08213700       1.13791200
H       -1.78132000       1.63658700       0.73663700
H        1.81711100      -0.47708600       0.82894300
N       -0.93379800      -2.40744700       0.00160000
O        0.09219000      -3.08281700      -0.21511300
O       -2.06461400      -2.85306200      -0.15109500
O       -0.77192000      -1.19875000       0.40584100
H       -0.06261700       0.00786000      -0.63559500
H       -3.58084000       1.87480700      -0.79584600
H       -2.44597200       0.64497300      -1.37698800
H       -4.82228100      -0.17656600      -1.54750600
H       -3.86164400      -1.15795000      -0.43330100
H       -5.89870300       0.80300500       0.32092800
H       -5.65991100      -0.71322900       0.88687200
H       -3.22554900       0.96994800       1.43148300
H       -2.01239500      -0.02664000       0.81934300
C       -3.19447200       0.86848900      -0.61488000
C       -4.30963300      -0.16933900      -0.57734000
N       -2.51329900       0.87822300       0.70282600
N       -5.18750500       0.12014600       0.55868900
H        3.36558100      -1.94532100      -1.22839600
H        2.34267200      -0.50214800      -1.46337900
H        4.77163800       0.12680300      -1.27530800
H        3.78411100       0.82791600       0.00678100
H        5.67351600      -1.38324900       0.29935300
H        5.41390400      -0.10159200       1.28232500
H        1.51450000      -2.05263300       0.27883400
H        2.94271000      -1.68303900       1.14678600
C        3.02051100      -1.01118300      -0.77666100
C        4.18699400      -0.11291300      -0.37909000
N        2.26241700      -1.35305200       0.45472400
N        4.95728600      -0.77353900       0.67807000
