60
4sa1ma1tma1eda-8
S        3.33598700      -1.99279500       0.12447700
O        2.46034800      -0.95554100      -0.57789100
O        2.99754000      -3.33471400      -0.32012900
O        2.89329000      -1.83557800       1.67208900
O        4.72961000      -1.56417800       0.11216600
H        1.92482800      -2.00419200       1.75129700
H        3.28315500       0.38286900      -1.03941800
S       -3.37868500      -1.51860600      -0.94234400
O       -2.85794300      -2.35087200       0.17869800
O       -4.04189400      -0.29855600      -0.46652600
O       -4.52386000      -2.42732300      -1.64849200
O       -2.41123300      -1.33108400      -2.02796100
H       -5.21901400      -2.59843600      -0.99903400
H       -2.48069400      -1.62776800       1.58261900
S        0.66225500       2.72786800      -1.43158000
O        0.60833500       1.10559800      -1.41776100
O        1.86683600       2.95863700      -2.25619800
O       -0.59356500       3.23916100      -1.95404700
O        0.88817400       3.09496600       0.00311900
H        1.58604200       1.92489500       0.92512400
S       -0.63991100      -0.63044000       1.82604000
O        0.16247000      -1.84384400       1.53549600
O       -2.06206400      -1.10139000       2.33346100
O       -0.08246000       0.20960400       2.88916100
O       -0.91201600       0.13406900       0.56676800
H       -0.03804600       0.77484200      -0.74982300
C        0.17516100      -3.62229600      -1.95139700
N        0.05424600      -2.31548500      -1.26758600
H       -0.07566200      -2.42558600      -0.25109600
H        0.90896300      -1.74548900      -1.35224100
H       -0.73296500      -4.19408400      -1.76312100
H        0.28335700      -3.45060300      -3.02190800
H        1.05081200      -4.13931300      -1.56129900
H       -0.77678100      -1.79645300      -1.61420100
N       -2.96029100       2.07258400       0.89804500
C       -1.96050800       2.90798700       1.61640900
C       -3.45552700       2.74238600      -0.33715100
C       -4.06818500       1.66517700       1.80116000
H       -4.10949100       2.04443400      -0.85777200
H       -3.99405900       3.64665100      -0.04537800
H       -2.59732900       2.99465500      -0.96291700
H       -1.57970600       2.33996100       2.46646600
H       -1.13774100       3.14713800       0.94174800
H       -2.45447300       3.82110000       1.95494700
H       -3.64521600       1.10017200       2.63243600
H       -4.56770000       2.56596500       2.16372300
H       -4.75287700       1.03172900       1.24143700
H       -2.47047500       1.20891300       0.60339000
N        2.13552700       1.10484400       1.29483000
C        3.59295900       1.38174500       1.31251100
C        4.04967600       2.07874100       0.03537900
N        3.75897900       1.31074000      -1.21981500
H        1.74631800       0.82853000       2.20469300
H        1.96198200       0.31213900       0.64691600
H        4.11700700       0.43658400       1.46597300
H        3.80720800       2.04765600       2.15034500
H        5.12597700       2.23765500       0.10610200
H        3.55722400       3.04794900      -0.06933800
H        4.60914800       1.10527600      -1.73932800
H        3.10268000       1.88350800      -1.81124000
60
4sa1ma1tma1eda-34
S       -2.01585300      -0.22480000       2.63929400
O       -0.82745100      -0.70551300       3.36718300
O       -3.28478500      -0.25707900       3.34293500
O       -1.62609100       1.32220600       2.35197900
O       -2.11069900      -0.82813600       1.26369100
H       -1.34059000      -2.09626600       0.61725300
H       -1.93844500       1.62086300       1.46487300
S        4.42960800       0.32691900       0.27909900
O        3.99522100       0.82965300       1.59780600
O        4.57667200      -1.14858000       0.27048300
O        3.66424900       0.84740800      -0.85988000
O        5.90784100       0.92590000       0.02518400
H        6.46543300       0.69133600       0.77986500
S       -0.85814900       2.75791300      -0.73392500
O        0.38424800       2.34645700      -0.04843900
O       -0.75116300       2.63349000      -2.19641900
O       -2.08140500       2.16880100      -0.16084500
O       -1.06264100       4.33170600      -0.40848200
H       -0.30479000       4.82016100      -0.75866300
S       -0.55876800      -2.36694200      -1.40170500
O       -0.89106300      -0.91262300      -1.47065600
O       -0.78989500      -2.78146700       0.14026600
O       -1.41165100      -3.20206600      -2.23038800
O        0.90439200      -2.57740200      -1.57694900
C        1.73398700      -0.02300400      -3.60939300
N        1.26045200       0.63295000      -2.37033700
H        2.04703800       0.80123100      -1.72368200
H        0.77361800       1.52515300      -2.54028000
H        2.13562300      -1.00085400      -3.34756200
H        0.88966500      -0.14654900      -4.28708600
H        2.50437400       0.59344300      -4.07110400
H        0.54204500       0.03861700      -1.90810900
N       -3.74174400      -0.20672100      -0.89193700
C       -3.63865600       0.34788200      -2.26571500
C       -4.13138600      -1.64243100      -0.90572200
C       -4.65889200       0.58473900      -0.02886500
H       -4.10201100      -2.01140700       0.11913800
H       -5.14134000      -1.72267400      -1.31309000
H       -3.42815000      -2.20047400      -1.52561200
H       -3.28262200       1.37478400      -2.19764800
H       -2.91771600      -0.25334800      -2.81796000
H       -4.62421200       0.30466900      -2.73412000
H       -4.33253800       1.62320200      -0.03859100
H       -5.67225200       0.49501200      -0.42544500
H       -4.60904400       0.18701300       0.98613800
H       -2.80444900      -0.15816300      -0.45754800
C        1.65693000      -1.68526800       1.75522600
N        2.29342200      -2.56903700       0.73972900
C        1.18624300      -0.40057000       1.07921100
N        1.22625500       0.73921400       2.02227800
H        2.43641300      -3.50629000       1.10971000
H        3.21969600      -2.15550700       0.47627600
H        0.81861900      -2.20414300       2.21852000
H        2.41632600      -1.46774700       2.51090100
H        0.16754500      -0.48120000       0.70698500
H        1.83303400      -0.13651300       0.24536200
H        0.64935200       0.51376700       2.84767000
H        0.80270000       1.54832100       1.53449500
H        2.21200700       0.95588700       2.23635700
H        1.71097200      -2.64671900      -0.13758400
60
4sa1ma1tma1eda-36
S        2.43956600       1.88894000      -0.65732600
O        2.54619400       1.34926500       0.73771700
O        3.74323300       2.11433900      -1.27330800
O        1.54780800       0.98737900      -1.45430300
O        1.75697700       3.30489700      -0.58883000
H        0.84073300       3.27139800      -0.19433800
H        1.41119800      -0.37499200      -0.62452300
S       -1.43207400       2.21180200       0.90893900
O       -1.09373400       0.94645100       0.17990300
O       -1.30495200       1.95942000       2.36931700
O       -0.66567400       3.36262300       0.42830400
O       -2.92849800       2.56319700       0.58790700
H       -3.49328400       1.73454000       0.60683900
S       -4.41668800      -0.59641000      -0.48570800
O       -3.86039800      -0.11040300      -1.76039200
O       -4.01323600      -1.97881200      -0.15973200
O       -4.23219100       0.31417600       0.66214100
O       -6.02152200      -0.60577200      -0.67561500
H       -6.23034000      -1.09858800      -1.48117600
S        1.05410900      -2.58824100      -0.53275100
O        0.41220200      -3.23141400       0.63689800
O        2.34877800      -3.15561200      -0.89654900
O        0.12762500      -2.33789700      -1.65009700
O        1.37636400      -1.09692100       0.07816200
C       -0.73081200       0.64189000      -3.72043900
N       -1.10656100       0.07795700      -2.40686700
H       -0.80056800       0.68331200      -1.62896100
H       -2.12974000      -0.03421400      -2.28616600
H        0.34710400       0.79862500      -3.72871300
H       -1.02432500      -0.05279500      -4.50688600
H       -1.24292800       1.59406400      -3.85597700
H       -0.65905700      -0.84090800      -2.23863700
N        4.58034000      -0.54391600       0.30731600
C        5.64461800       0.41628500       0.70215000
C        4.53945300      -1.73933800       1.18604600
C        4.70188700      -0.93013200      -1.12941300
H        3.74966700      -2.40420300       0.83389400
H        5.50486700      -2.24695800       1.13325400
H        4.34999400      -1.41592600       2.21079300
H        5.55074000       1.29891500       0.06867400
H        5.49468100       0.69737400       1.74489000
H        6.61745100      -0.06245400       0.57368000
H        4.63959200      -0.02190800      -1.72828000
H        5.66625900      -1.42438700      -1.26688600
H        3.89160300      -1.61862800      -1.37218300
H        3.68619200      -0.01983800       0.43595400
C       -0.15706600      -1.15401100       3.15919400
C       -1.60076500      -1.30799300       2.68901500
N       -1.67991500      -1.56937700       1.23545000
N        0.52204500       0.00586600       2.51723400
H        0.78841000      -0.21302400       1.53672000
H        1.38974800       0.25691300       2.98714600
H       -0.16204900      -0.98968900       4.23817900
H        0.42189100      -2.05168400       2.92820200
H       -2.18706500      -0.41140800       2.90218100
H       -2.04254100      -2.15465000       3.21725000
H       -1.46701600      -0.68770100       0.72516000
H       -2.63064400      -1.85153800       0.91490200
H       -0.10954600       0.85748200       2.51251400
H       -0.99669500      -2.30783200       0.94856900
