2sa_1dma_3w.log
 OpenBabel02281909523D
Gaussian kemi/andersx/programs/g09/g09 # opt freq 6-31++g(d,p) wb97xd
 33 26  0  0  0  0  0  0  0  0999 V2000
    1.3535    1.2161   -0.3761 S   0  0  0  0  0  0  0  0  0  0  0  0
    1.2632   -0.0792   -1.3449 O   0  0  0  0  0  0  0  0  0  0  0  0
    2.7682    1.5663   -0.3999 O   0  0  0  0  0  0  0  0  0  0  0  0
    0.4369    2.2281   -0.9271 O   0  0  0  0  0  0  0  0  0  0  0  0
    0.8539    0.7428    0.9530 O   0  0  0  0  0  0  0  0  0  0  0  0
    0.3151   -0.3662   -1.4043 H   0  0  0  0  0  0  0  0  0  0  0  0
   -1.8586   -1.5472   -0.0991 S   0  0  0  0  0  0  0  0  0  0  0  0
   -3.0160   -2.4246   -0.8059 O   0  0  0  0  0  0  0  0  0  0  0  0
   -0.9075   -2.5385    0.4469 O   0  0  0  0  0  0  0  0  0  0  0  0
   -1.3370   -0.7357   -1.2123 O   0  0  0  0  0  0  0  0  0  0  0  0
   -2.5083   -0.7302    0.9426 O   0  0  0  0  0  0  0  0  0  0  0  0
   -3.2840   -3.1256   -0.1955 H   0  0  0  0  0  0  0  0  0  0  0  0
   -1.9823    1.9286    0.3298 N   0  0  0  0  0  0  0  0  0  0  0  0
   -3.0985    2.2478   -0.5844 C   0  0  0  0  0  0  0  0  0  0  0  0
   -1.8762    2.7964    1.5210 C   0  0  0  0  0  0  0  0  0  0  0  0
   -2.0863    0.9393    0.6327 H   0  0  0  0  0  0  0  0  0  0  0  0
   -1.0833    1.9909   -0.1988 H   0  0  0  0  0  0  0  0  0  0  0  0
   -2.7828    2.7005    2.1202 H   0  0  0  0  0  0  0  0  0  0  0  0
   -1.0066    2.4745    2.0940 H   0  0  0  0  0  0  0  0  0  0  0  0
   -1.7442    3.8307    1.2005 H   0  0  0  0  0  0  0  0  0  0  0  0
   -2.9668    3.2579   -0.9747 H   0  0  0  0  0  0  0  0  0  0  0  0
   -3.0808    1.5264   -1.4014 H   0  0  0  0  0  0  0  0  0  0  0  0
   -4.0427    2.1713   -0.0435 H   0  0  0  0  0  0  0  0  0  0  0  0
    1.2934   -1.7056    1.5333 O   0  0  0  0  0  0  0  0  0  0  0  0
    2.0670   -1.9392    0.8600 H   0  0  0  0  0  0  0  0  0  0  0  0
    0.4425   -2.1169    1.1943 H   0  0  0  0  0  0  0  0  0  0  0  0
    1.1580   -0.7043    1.4264 H   0  0  0  0  0  0  0  0  0  0  0  0
    2.6303   -1.6078   -0.9410 H   0  0  0  0  0  0  0  0  0  0  0  0
    3.0544   -2.0491   -0.1887 O   0  0  0  0  0  0  0  0  0  0  0  0
    3.8375   -1.4855    0.0230 H   0  0  0  0  0  0  0  0  0  0  0  0
    4.1872    0.6134    0.1685 H   0  0  0  0  0  0  0  0  0  0  0  0
    4.7997   -0.1134    0.3954 O   0  0  0  0  0  0  0  0  0  0  0  0
    5.6400    0.0849   -0.0239 H   0  0  0  0  0  0  0  0  0  0  0  0
  1  5  1  0  0  0  0
  2  1  1  0  0  0  0
  3  1  2  0  0  0  0
  4  1  2  0  0  0  0
  6  2  1  0  0  0  0
  7  9  2  0  0  0  0
  7 11  1  0  0  0  0
  8 12  1  0  0  0  0
  8  7  1  0  0  0  0
 10  7  2  0  0  0  0
 13 16  1  0  0  0  0
 13 15  1  0  0  0  0
 14 23  1  0  0  0  0
 14 13  1  0  0  0  0
 15 19  1  0  0  0  0
 15 18  1  0  0  0  0
 17 13  1  0  0  0  0
 20 15  1  0  0  0  0
 21 14  1  0  0  0  0
 22 14  1  0  0  0  0
 26 24  1  0  0  0  0
 27 24  1  0  0  0  0
 28 29  1  0  0  0  0
 29 30  1  0  0  0  0
 31 32  1  0  0  0  0
 33 32  1  0  0  0  0
M  RAD  3   5   2  11   2  25   2
M  END
$$$$
