3sa_2dma_2w.log
 OpenBabel02281909523D
Gaussian kemi/andersx/programs/g09/g09 # opt freq 6-31++g(d,p) wb97xd
 47 40  0  0  0  0  0  0  0  0999 V2000
   -0.6461   -1.5802    1.0088 S   0  0  0  0  0  0  0  0  0  0  0  0
    0.5286   -2.4729    1.1007 O   0  0  0  0  0  0  0  0  0  0  0  0
   -1.9046   -2.2555    1.3503 O   0  0  0  0  0  0  0  0  0  0  0  0
   -0.4404   -0.2904    1.7090 O   0  0  0  0  0  0  0  0  0  0  0  0
   -0.8083   -1.2149   -0.5537 O   0  0  0  0  0  0  0  0  0  0  0  0
    1.9772    1.9806    0.7120 H   0  0  0  0  0  0  0  0  0  0  0  0
    2.0473   -1.8952    1.0915 H   0  0  0  0  0  0  0  0  0  0  0  0
    2.0076   -0.2044   -0.7980 O   0  0  0  0  0  0  0  0  0  0  0  0
    2.9805   -1.5312    1.0397 O   0  0  0  0  0  0  0  0  0  0  0  0
    3.2386   -0.8632   -0.3784 S   0  0  0  0  0  0  0  0  0  0  0  0
    4.4491   -0.0943   -0.2576 O   0  0  0  0  0  0  0  0  0  0  0  0
    3.5141   -2.0791   -1.3312 O   0  0  0  0  0  0  0  0  0  0  0  0
    2.6369   -2.5352   -1.5464 H   0  0  0  0  0  0  0  0  0  0  0  0
   -3.2306   -1.6749    0.3893 H   0  0  0  0  0  0  0  0  0  0  0  0
    0.8699    2.1059   -0.4992 H   0  0  0  0  0  0  0  0  0  0  0  0
    1.6437    2.6248   -0.0363 N   0  0  0  0  0  0  0  0  0  0  0  0
    2.7141    2.9102   -1.0159 C   0  0  0  0  0  0  0  0  0  0  0  0
    1.0889    3.8363    0.6142 C   0  0  0  0  0  0  0  0  0  0  0  0
    1.8989    4.3668    1.1166 H   0  0  0  0  0  0  0  0  0  0  0  0
    0.6208    4.4669   -0.1417 H   0  0  0  0  0  0  0  0  0  0  0  0
    0.3344    3.5283    1.3369 H   0  0  0  0  0  0  0  0  0  0  0  0
    2.3190    3.5778   -1.7829 H   0  0  0  0  0  0  0  0  0  0  0  0
    3.5509    3.3855   -0.5026 H   0  0  0  0  0  0  0  0  0  0  0  0
    3.0405    1.9730   -1.4612 H   0  0  0  0  0  0  0  0  0  0  0  0
   -1.8749    2.0679   -0.4669 S   0  0  0  0  0  0  0  0  0  0  0  0
   -1.8903    3.4667   -0.8343 O   0  0  0  0  0  0  0  0  0  0  0  0
   -0.6588    1.3280   -0.9647 O   0  0  0  0  0  0  0  0  0  0  0  0
   -3.1022    1.3017   -0.7702 O   0  0  0  0  0  0  0  0  0  0  0  0
   -0.6383   -0.2301   -0.7279 H   0  0  0  0  0  0  0  0  0  0  0  0
   -1.7092    2.0539    1.1403 O   0  0  0  0  0  0  0  0  0  0  0  0
   -1.3474    1.1814    1.4231 H   0  0  0  0  0  0  0  0  0  0  0  0
   -3.9013   -1.1994   -0.2492 N   0  0  0  0  0  0  0  0  0  0  0  0
   -5.2091   -1.0339    0.4190 C   0  0  0  0  0  0  0  0  0  0  0  0
   -3.9528   -1.9288   -1.5343 C   0  0  0  0  0  0  0  0  0  0  0  0
   -3.4996   -0.2451   -0.4274 H   0  0  0  0  0  0  0  0  0  0  0  0
   -5.6492   -2.0140    0.6086 H   0  0  0  0  0  0  0  0  0  0  0  0
   -5.0543   -0.5085    1.3611 H   0  0  0  0  0  0  0  0  0  0  0  0
   -5.8645   -0.4444   -0.2231 H   0  0  0  0  0  0  0  0  0  0  0  0
   -4.3683   -2.9243   -1.3709 H   0  0  0  0  0  0  0  0  0  0  0  0
   -4.5758   -1.3708   -2.2343 H   0  0  0  0  0  0  0  0  0  0  0  0
   -2.9370   -2.0066   -1.9205 H   0  0  0  0  0  0  0  0  0  0  0  0
    2.0047    1.0585    2.2218 O   0  0  0  0  0  0  0  0  0  0  0  0
    2.7240    0.4213    2.2976 H   0  0  0  0  0  0  0  0  0  0  0  0
    1.1971    0.5175    2.1597 H   0  0  0  0  0  0  0  0  0  0  0  0
    1.1448   -3.1199   -1.6445 O   0  0  0  0  0  0  0  0  0  0  0  0
    0.9478   -3.5466   -0.7991 H   0  0  0  0  0  0  0  0  0  0  0  0
    0.5508   -2.3520   -1.6352 H   0  0  0  0  0  0  0  0  0  0  0  0
  1  2  2  0  0  0  0
  1  3  2  0  0  0  0
  1  4  1  0  0  0  0
  5  1  1  0  0  0  0
  8 10  2  0  0  0  0
  9  7  1  0  0  0  0
 10 11  2  0  0  0  0
 10  9  1  0  0  0  0
 12 10  1  0  0  0  0
 13 12  1  0  0  0  0
 15 16  1  0  0  0  0
 16 18  1  0  0  0  0
 16  6  1  0  0  0  0
 17 23  1  0  0  0  0
 17 16  1  0  0  0  0
 18 19  1  0  0  0  0
 18 21  1  0  0  0  0
 20 18  1  0  0  0  0
 22 17  1  0  0  0  0
 24 17  1  0  0  0  0
 25 30  1  0  0  0  0
 26 25  2  0  0  0  0
 27 25  2  0  0  0  0
 28 25  1  0  0  0  0
 29  5  1  0  0  0  0
 30 31  1  0  0  0  0
 32 14  1  0  0  0  0
 32 33  1  0  0  0  0
 33 36  1  0  0  0  0
 33 37  1  0  0  0  0
 34 39  1  0  0  0  0
 34 32  1  0  0  0  0
 35 32  1  0  0  0  0
 38 33  1  0  0  0  0
 40 34  1  0  0  0  0
 41 34  1  0  0  0  0
 42 43  1  0  0  0  0
 44 42  1  0  0  0  0
 45 47  1  0  0  0  0
 45 46  1  0  0  0  0
M  RAD  2   4   2  28   2
M  END
$$$$
