3sa_2dma_5w.log
 OpenBabel02281909523D
Gaussian kemi/andersx/programs/g09/g09 # opt freq 6-31++g(d,p) wb97xd
 56 45  0  0  0  0  0  0  0  0999 V2000
   -1.3063   -2.5814    0.1892 S   0  0  0  0  0  0  0  0  0  0  0  0
   -0.5458   -2.8137    1.4254 O   0  0  0  0  0  0  0  0  0  0  0  0
   -0.7593   -3.5996   -0.9105 O   0  0  0  0  0  0  0  0  0  0  0  0
   -2.7520   -2.8418    0.2577 O   0  0  0  0  0  0  0  0  0  0  0  0
    0.2314   -3.6090   -0.8582 H   0  0  0  0  0  0  0  0  0  0  0  0
    3.0383    0.0703    0.1018 S   0  0  0  0  0  0  0  0  0  0  0  0
    2.6918    0.6267   -1.2476 O   0  0  0  0  0  0  0  0  0  0  0  0
    4.4463   -0.6376   -0.0682 O   0  0  0  0  0  0  0  0  0  0  0  0
    3.2312    1.0874    1.1279 O   0  0  0  0  0  0  0  0  0  0  0  0
    4.3973   -1.2945   -0.8186 H   0  0  0  0  0  0  0  0  0  0  0  0
   -1.4329    2.2285   -0.0651 S   0  0  0  0  0  0  0  0  0  0  0  0
   -1.3483    1.8951   -1.5227 O   0  0  0  0  0  0  0  0  0  0  0  0
   -2.6392    1.6429    0.5555 O   0  0  0  0  0  0  0  0  0  0  0  0
   -1.6456    3.7801    0.0456 O   0  0  0  0  0  0  0  0  0  0  0  0
   -0.1715    1.8927    0.6272 O   0  0  0  0  0  0  0  0  0  0  0  0
    0.7428    5.8228   -0.3283 H   0  0  0  0  0  0  0  0  0  0  0  0
   -1.0616   -1.2049   -0.3425 O   0  0  0  0  0  0  0  0  0  0  0  0
    0.3303    0.1089   -1.9949 O   0  0  0  0  0  0  0  0  0  0  0  0
    0.5251    4.9550   -0.6755 O   0  0  0  0  0  0  0  0  0  0  0  0
    0.0314   -0.1831    2.4182 N   0  0  0  0  0  0  0  0  0  0  0  0
   -3.8736   -0.4500   -0.6920 N   0  0  0  0  0  0  0  0  0  0  0  0
    0.0823    0.5347    1.6660 H   0  0  0  0  0  0  0  0  0  0  0  0
    0.1637   -1.0965    1.9569 H   0  0  0  0  0  0  0  0  0  0  0  0
    1.3335    4.3894   -0.5739 H   0  0  0  0  0  0  0  0  0  0  0  0
   -0.7991    4.2674   -0.2361 H   0  0  0  0  0  0  0  0  0  0  0  0
   -3.5341   -1.3650   -0.3300 H   0  0  0  0  0  0  0  0  0  0  0  0
   -3.2804    0.2864   -0.2432 H   0  0  0  0  0  0  0  0  0  0  0  0
   -0.0563   -0.5583   -1.3464 H   0  0  0  0  0  0  0  0  0  0  0  0
    1.2812    0.3398   -1.6984 H   0  0  0  0  0  0  0  0  0  0  0  0
   -0.2926    0.9257   -1.8663 H   0  0  0  0  0  0  0  0  0  0  0  0
    2.0528   -0.9771    0.4864 O   0  0  0  0  0  0  0  0  0  0  0  0
    1.9178   -3.4111   -0.5438 O   0  0  0  0  0  0  0  0  0  0  0  0
    1.9573   -2.5285   -0.0919 H   0  0  0  0  0  0  0  0  0  0  0  0
    2.1398   -4.0603    0.1318 H   0  0  0  0  0  0  0  0  0  0  0  0
    2.7144    3.4583   -0.4539 O   0  0  0  0  0  0  0  0  0  0  0  0
    2.8101    2.9402    0.3603 H   0  0  0  0  0  0  0  0  0  0  0  0
    2.7739    2.7729   -1.1331 H   0  0  0  0  0  0  0  0  0  0  0  0
    4.0813   -2.4287   -2.0005 O   0  0  0  0  0  0  0  0  0  0  0  0
    3.3221   -2.9565   -1.6900 H   0  0  0  0  0  0  0  0  0  0  0  0
    3.8271   -2.0352   -2.8400 H   0  0  0  0  0  0  0  0  0  0  0  0
    1.1008    0.0473    3.4143 C   0  0  0  0  0  0  0  0  0  0  0  0
    0.9409    1.0211    3.8788 H   0  0  0  0  0  0  0  0  0  0  0  0
    1.0561   -0.7391    4.1693 H   0  0  0  0  0  0  0  0  0  0  0  0
    2.0620    0.0423    2.9040 H   0  0  0  0  0  0  0  0  0  0  0  0
   -1.3317   -0.1410    2.9910 C   0  0  0  0  0  0  0  0  0  0  0  0
   -1.4793    0.8245    3.4760 H   0  0  0  0  0  0  0  0  0  0  0  0
   -2.0509   -0.2401    2.1802 H   0  0  0  0  0  0  0  0  0  0  0  0
   -1.4448   -0.9566    3.7055 H   0  0  0  0  0  0  0  0  0  0  0  0
   -3.6592   -0.4039   -2.1558 C   0  0  0  0  0  0  0  0  0  0  0  0
   -4.2975   -1.1483   -2.6343 H   0  0  0  0  0  0  0  0  0  0  0  0
   -3.8932    0.5972   -2.5186 H   0  0  0  0  0  0  0  0  0  0  0  0
   -2.6114   -0.6246   -2.3500 H   0  0  0  0  0  0  0  0  0  0  0  0
   -5.2737   -0.2269   -0.2782 C   0  0  0  0  0  0  0  0  0  0  0  0
   -5.5911    0.7613   -0.6133 H   0  0  0  0  0  0  0  0  0  0  0  0
   -5.9102   -0.9964   -0.7175 H   0  0  0  0  0  0  0  0  0  0  0  0
   -5.3308   -0.2777    0.8090 H   0  0  0  0  0  0  0  0  0  0  0  0
  1  4  2  0  0  0  0
  1  2  1  0  0  0  0
  3  5  1  0  0  0  0
  3  1  1  0  0  0  0
  6 31  2  0  0  0  0
  6  9  1  0  0  0  0
  7  6  2  0  0  0  0
  8  6  1  0  0  0  0
 10  8  1  0  0  0  0
 11 14  1  0  0  0  0
 11 13  2  0  0  0  0
 11 15  1  0  0  0  0
 12 11  2  0  0  0  0
 17  1  2  0  0  0  0
 18 29  1  0  0  0  0
 18 28  1  0  0  0  0
 19 24  1  0  0  0  0
 19 16  1  0  0  0  0
 20 45  1  0  0  0  0
 20 41  1  0  0  0  0
 21 26  1  0  0  0  0
 21 53  1  0  0  0  0
 21 27  1  0  0  0  0
 22 20  1  0  0  0  0
 23 20  1  0  0  0  0
 25 14  1  0  0  0  0
 32 33  1  0  0  0  0
 32 34  1  0  0  0  0
 35 36  1  0  0  0  0
 37 35  1  0  0  0  0
 38 39  1  0  0  0  0
 40 38  1  0  0  0  0
 41 42  1  0  0  0  0
 41 43  1  0  0  0  0
 44 41  1  0  0  0  0
 45 46  1  0  0  0  0
 45 48  1  0  0  0  0
 47 45  1  0  0  0  0
 49 21  1  0  0  0  0
 50 49  1  0  0  0  0
 51 49  1  0  0  0  0
 52 49  1  0  0  0  0
 53 56  1  0  0  0  0
 54 53  1  0  0  0  0
 55 53  1  0  0  0  0
M  RAD  4   2   2   9   2  15   2  30   2
M  END
$$$$
