3sa_4mea.log
 OpenBabel02271919113D
Gaussian appl/chem/G09RevD.01/g09/g09 #p opt freq wB97XD/6-31++G(d,p) iop(5/13=1
 65 58  0  0  0  0  0  0  0  0999 V2000
    2.1738    0.3820   -1.8849 S   0  0  0  0  0  0  0  0  0  0  0  0
    1.3595   -0.0090   -0.6275 O   0  0  0  0  0  0  0  0  0  0  0  0
    3.5270    0.8021   -1.4206 O   0  0  0  0  0  0  0  0  0  0  0  0
    2.1330   -1.0437    0.4912 H   0  0  0  0  0  0  0  0  0  0  0  0
    0.1628   -1.2175   -0.9502 H   0  0  0  0  0  0  0  0  0  0  0  0
    2.2116   -0.8027   -2.7796 O   0  0  0  0  0  0  0  0  0  0  0  0
    1.4394    1.5271   -2.5096 O   0  0  0  0  0  0  0  0  0  0  0  0
   -0.5581   -1.9684   -1.0624 N   0  0  0  0  0  0  0  0  0  0  0  0
   -0.2216   -2.9074   -2.1572 C   0  0  0  0  0  0  0  0  0  0  0  0
   -0.6272   -2.4070   -0.1297 H   0  0  0  0  0  0  0  0  0  0  0  0
   -1.4675   -1.4944   -1.2258 H   0  0  0  0  0  0  0  0  0  0  0  0
   -1.1034   -3.5161   -2.3719 H   0  0  0  0  0  0  0  0  0  0  0  0
    0.0157   -2.3048   -3.0370 H   0  0  0  0  0  0  0  0  0  0  0  0
    0.9494   -3.8138   -1.7974 C   0  0  0  0  0  0  0  0  0  0  0  0
    0.6807   -4.4533   -0.9489 H   0  0  0  0  0  0  0  0  0  0  0  0
    1.1433   -4.4683   -2.6573 H   0  0  0  0  0  0  0  0  0  0  0  0
    2.1153   -3.1108   -1.4282 O   0  0  0  0  0  0  0  0  0  0  0  0
    2.2570   -2.3374   -2.0278 H   0  0  0  0  0  0  0  0  0  0  0  0
   -0.7061   -0.8759    2.1888 S   0  0  0  0  0  0  0  0  0  0  0  0
    0.2115   -0.3047    3.1894 O   0  0  0  0  0  0  0  0  0  0  0  0
   -2.0876   -1.0994    2.9345 O   0  0  0  0  0  0  0  0  0  0  0  0
   -2.7495   -1.3459    2.2392 H   0  0  0  0  0  0  0  0  0  0  0  0
    1.1916    1.2615    0.7412 H   0  0  0  0  0  0  0  0  0  0  0  0
   -0.9583    0.0290    1.0512 O   0  0  0  0  0  0  0  0  0  0  0  0
   -0.2495   -2.2225    1.7221 O   0  0  0  0  0  0  0  0  0  0  0  0
    2.3992   -1.9020    1.0360 N   0  0  0  0  0  0  0  0  0  0  0  0
    3.4851   -1.6574    2.0117 C   0  0  0  0  0  0  0  0  0  0  0  0
    1.5068   -2.1998    1.4805 H   0  0  0  0  0  0  0  0  0  0  0  0
    2.6122   -2.5852    0.2909 H   0  0  0  0  0  0  0  0  0  0  0  0
    3.0342   -1.1721    2.8811 H   0  0  0  0  0  0  0  0  0  0  0  0
    3.8970   -2.6190    2.3272 H   0  0  0  0  0  0  0  0  0  0  0  0
    4.5688   -0.7692    1.4139 C   0  0  0  0  0  0  0  0  0  0  0  0
    5.3801   -0.6792    2.1437 H   0  0  0  0  0  0  0  0  0  0  0  0
    4.9821   -1.2272    0.5063 H   0  0  0  0  0  0  0  0  0  0  0  0
    4.0651    0.5167    1.1260 O   0  0  0  0  0  0  0  0  0  0  0  0
    3.9447    0.6281    0.1447 H   0  0  0  0  0  0  0  0  0  0  0  0
    1.5527    1.6358    1.6403 N   0  0  0  0  0  0  0  0  0  0  0  0
    1.5046    3.1176    1.6977 C   0  0  0  0  0  0  0  0  0  0  0  0
    1.0065    1.1631    2.3823 H   0  0  0  0  0  0  0  0  0  0  0  0
    2.5276    1.2817    1.6782 H   0  0  0  0  0  0  0  0  0  0  0  0
    0.4572    3.4135    1.7929 H   0  0  0  0  0  0  0  0  0  0  0  0
    2.0563    3.4386    2.5846 H   0  0  0  0  0  0  0  0  0  0  0  0
    2.0967    3.7133    0.4270 C   0  0  0  0  0  0  0  0  0  0  0  0
    2.2279    4.7904    0.5818 H   0  0  0  0  0  0  0  0  0  0  0  0
    3.0844    3.2792    0.2248 H   0  0  0  0  0  0  0  0  0  0  0  0
    1.2114    3.4994   -0.6445 O   0  0  0  0  0  0  0  0  0  0  0  0
    1.5859    2.9252   -1.3399 H   0  0  0  0  0  0  0  0  0  0  0  0
   -1.1523    1.6870   -1.3589 N   0  0  0  0  0  0  0  0  0  0  0  0
   -1.7229    3.0459   -1.5446 C   0  0  0  0  0  0  0  0  0  0  0  0
   -0.2644    1.5623   -1.8884 H   0  0  0  0  0  0  0  0  0  0  0  0
   -1.8317    0.9423   -1.5862 H   0  0  0  0  0  0  0  0  0  0  0  0
   -0.9062    3.7463   -1.3688 H   0  0  0  0  0  0  0  0  0  0  0  0
   -2.0744    3.1391   -2.5745 H   0  0  0  0  0  0  0  0  0  0  0  0
   -2.8537    3.2592   -0.5419 C   0  0  0  0  0  0  0  0  0  0  0  0
   -3.1286    4.3193   -0.5523 H   0  0  0  0  0  0  0  0  0  0  0  0
   -3.7331    2.6700   -0.8217 H   0  0  0  0  0  0  0  0  0  0  0  0
   -2.4158    2.9019    0.7522 O   0  0  0  0  0  0  0  0  0  0  0  0
   -2.8633    2.0763    0.9946 H   0  0  0  0  0  0  0  0  0  0  0  0
   -3.8472   -0.6365   -0.2396 S   0  0  0  0  0  0  0  0  0  0  0  0
   -2.9362   -0.5415   -1.4104 O   0  0  0  0  0  0  0  0  0  0  0  0
   -5.2281   -1.0925   -0.9601 O   0  0  0  0  0  0  0  0  0  0  0  0
   -5.9099   -1.1728   -0.2787 H   0  0  0  0  0  0  0  0  0  0  0  0
   -0.9393    1.5444   -0.3630 H   0  0  0  0  0  0  0  0  0  0  0  0
   -3.4903   -1.7301    0.6845 O   0  0  0  0  0  0  0  0  0  0  0  0
   -4.1182    0.6436    0.4169 O   0  0  0  0  0  0  0  0  0  0  0  0
  1  3  1  0  0  0  0
  1  2  1  0  0  0  0
  4 26  1  0  0  0  0
  6  1  2  0  0  0  0
  7  1  2  0  0  0  0
  8  5  1  0  0  0  0
  8 10  1  0  0  0  0
  9 14  1  0  0  0  0
  9  8  1  0  0  0  0
 11  8  1  0  0  0  0
 12  9  1  0  0  0  0
 13  9  1  0  0  0  0
 14 17  1  0  0  0  0
 14 15  1  0  0  0  0
 16 14  1  0  0  0  0
 18 17  1  0  0  0  0
 19 21  1  0  0  0  0
 19 20  1  0  0  0  0
 22 21  1  0  0  0  0
 23 37  1  0  0  0  0
 24 19  2  0  0  0  0
 25 19  2  0  0  0  0
 26 28  1  0  0  0  0
 26 27  1  0  0  0  0
 27 31  1  0  0  0  0
 27 30  1  0  0  0  0
 29 26  1  0  0  0  0
 32 27  1  0  0  0  0
 32 33  1  0  0  0  0
 34 32  1  0  0  0  0
 35 32  1  0  0  0  0
 36 35  1  0  0  0  0
 37 40  1  0  0  0  0
 37 38  1  0  0  0  0
 37 39  1  0  0  0  0
 38 41  1  0  0  0  0
 38 42  1  0  0  0  0
 43 44  1  0  0  0  0
 43 38  1  0  0  0  0
 45 43  1  0  0  0  0
 46 43  1  0  0  0  0
 47 46  1  0  0  0  0
 48 63  1  0  0  0  0
 49 52  1  0  0  0  0
 49 48  1  0  0  0  0
 49 54  1  0  0  0  0
 50 48  1  0  0  0  0
 51 48  1  0  0  0  0
 53 49  1  0  0  0  0
 54 57  1  0  0  0  0
 55 54  1  0  0  0  0
 56 54  1  0  0  0  0
 57 58  1  0  0  0  0
 59 65  2  0  0  0  0
 59 64  1  0  0  0  0
 60 59  2  0  0  0  0
 61 62  1  0  0  0  0
 61 59  1  0  0  0  0
M  RAD  4   2   2   3   2  20   2  64   2
M  END
$$$$
