77
4sa1tma3eda-38
S       -1.27617200       3.29316200       0.66697100
O       -0.97230400       1.84035700       0.81347700
O       -0.92968500       3.74318500      -0.71259500
O       -2.63525200       3.62438500       1.08567100
O       -0.30357100       4.06207400       1.65960500
H        0.62375800       3.91716200       1.33893200
S       -2.22463700      -2.40792100       1.16950400
O       -1.87034500      -0.97573200       0.86503500
O       -1.03547300      -3.10065400       1.71246700
O       -3.44945800      -2.53348500       1.93877700
O       -2.55427400      -3.06756600      -0.25439500
H       -1.71584500      -3.11466500      -0.79494500
S        1.05675800      -2.99300600      -1.01300500
O        1.32769700      -1.61188900      -0.49428800
O       -0.29365200      -3.04821700      -1.62319900
O        2.14177600      -3.49892600      -1.84250100
O        1.04176700      -3.94121800       0.27204600
H        0.26048300      -3.70390000       0.83950500
S        2.41361600       2.48649200      -0.49582600
O        2.20532700       1.06558100      -0.05651100
O        2.10307100       3.43258000       0.59120800
O        3.69840000       2.65922400      -1.15690900
O        1.30051000       2.71730200      -1.64239000
H        0.51653900       3.22105200      -1.27619200
N        4.30391900      -0.78809400      -0.54358600
C        5.37528100       0.15260100      -0.12130000
C        4.47088900      -2.11264500       0.11122500
C        4.22920200      -0.89349300      -2.02554500
H        3.73075000      -2.80464800      -0.28585100
H        5.47633900      -2.47818600      -0.10929700
H        4.34166300      -1.96771000       1.18433300
H        5.15870400       1.13823700      -0.53457000
H        5.37965100       0.18819800       0.96755900
H        6.33057100      -0.22513400      -0.49179100
H        4.03965000       0.10400100      -2.42425700
H        5.18332900      -1.27451000      -2.39568400
H        3.42564400      -1.58408500      -2.28203100
H        3.40083900      -0.37475600      -0.24528600
C       -1.46316600      -0.19792300      -2.32555800
N       -0.36642500       0.32151500      -1.46970200
C       -2.16698500       0.90460600      -3.09839800
N       -2.79560500       1.88721600      -2.20966700
H        0.22803400      -0.45560600      -1.09714900
H       -0.72262600       0.85041400      -0.65019000
H       -1.03032200      -0.93386600      -3.00513100
H       -2.16461200      -0.70932500      -1.66542800
H       -2.95024200       0.41736500      -3.68498700
H       -1.46914100       1.37186800      -3.80930100
H       -3.52949000       2.38283700      -2.70502800
H       -2.13083300       2.60245000      -1.90722000
H        0.26822200       0.96557000      -1.95478800
C       -5.41429000      -0.79318700      -0.06713900
N       -4.76918300      -1.01266600      -1.36160800
C       -5.22275000       0.64373700       0.41057500
N       -3.79106200       1.02436900       0.35122600
H       -5.43202000      -0.98151000      -2.12661400
H       -4.30924200      -1.91761100      -1.37458400
H       -6.49137300      -1.00382000      -0.07844200
H       -4.96780500      -1.46665500       0.66934600
H       -5.56993600       0.74958600       1.44108600
H       -5.77061600       1.35541400      -0.21390700
H       -3.16008000       0.28637800       0.72057300
H       -3.58996400       1.90445300       0.84637600
H       -3.49152900       1.19020800      -0.64358800
C        2.39448500      -0.39907800       3.49774200
N        3.45712400       0.13771200       2.64723300
C        1.30758900      -1.07854700       2.68331400
N        0.53701200      -0.10026900       1.87538300
H        4.16820300       0.57307700       3.22630800
H        3.10384300       0.86685500       2.02978100
H        2.83123000      -1.15812700       4.15363100
H        1.93348200       0.35992600       4.15184600
H        0.59901100      -1.59751000       3.33090800
H        1.72478100      -1.80004900       1.97917600
H        0.16817200       0.67988600       2.42188100
H       -0.30336500      -0.53851900       1.43666300
H        1.10483200       0.32471700       1.11762500
77
4sa1tma3eda-48
S       -0.80220300       3.27785000      -0.94903900
O       -1.44052900       2.96575200      -2.24764200
O       -0.20872100       2.05221800      -0.35213000
O        0.13497800       4.40377500      -0.95486900
O       -1.96947600       3.74039500       0.05637200
H       -2.52341300       2.95791500       0.26298100
S       -4.10264200       0.53109100       1.26033500
O       -5.07999400      -0.16989800       0.39842700
O       -3.61063900      -0.25892600       2.38577400
O       -3.03381700       1.18903700       0.46776900
O       -4.88240000       1.81638300       1.86895000
H       -5.54592800       1.50207500       2.49821600
S       -0.58877800      -2.72696500      -0.84904500
O        0.51755500      -3.24153600       0.02092800
O       -1.27898100      -3.78318200      -1.61013000
O       -1.62049100      -2.04412300       0.07669600
O       -0.04550600      -1.65359600      -1.75836700
S        3.08692400      -0.11478600       1.65541900
O        2.11116400      -0.59441800       0.57619800
O        2.63271200       1.24771700       2.09181300
O        2.96579000      -1.07767000       2.81097300
O        4.45574200      -0.10634700       1.09278900
N        3.03791200      -2.38438700      -1.28740300
C        3.75240500      -1.23513400      -1.89756100
C        3.89668300      -3.10447800      -0.31158300
C        2.49267700      -3.30208500      -2.31778300
H        3.28102200      -3.85426600       0.18537500
H        4.71666600      -3.58306300      -0.85211800
H        4.28363200      -2.38403000       0.41063200
H        3.04103200      -0.68315300      -2.51311600
H        4.13188200      -0.60711900      -1.09003000
H        4.57110400      -1.61657800      -2.51258000
H        1.78764100      -2.74824200      -2.93585500
H        3.32489800      -3.68845800      -2.91092100
H        1.96254000      -4.11110600      -1.81770000
H        2.26298900      -1.97407700      -0.72743500
C        2.87614400       2.46784800      -1.04985100
N        2.49687200       3.16796500       0.20393100
C        4.39606400       2.33994200      -1.09092700
N        4.99582900       3.65656200      -0.87103000
H        1.57937400       3.62061800       0.08502900
H        3.21550100       3.88157600       0.37281100
H        2.38074900       1.49486500      -1.04894100
H        2.49563000       3.06232000      -1.88478900
H        4.68193700       1.87572400      -2.04554800
H        4.71524900       1.66955200      -0.28628700
H        5.02141500       4.21342400      -1.71826100
H        5.94006600       3.58302900      -0.51360200
H        2.49056800       2.47264100       1.00092700
C       -3.53704100      -1.60860200      -2.58999500
C       -3.19044200      -0.12885000      -2.69299000
N       -1.97668600       0.26669600      -1.94492800
N       -3.85954000      -2.03953000      -1.20501000
H       -4.23071600      -2.98728000      -1.20539600
H       -4.51149300      -1.39912800      -0.70704700
H       -4.40736800      -1.79189000      -3.22432600
H       -2.71123500      -2.23977000      -2.92944200
H       -4.01198000       0.49633100      -2.33299100
H       -3.02718700       0.09988200      -3.74796100
H       -1.18193900      -0.42131100      -2.00327900
H       -2.20900700       0.39103500      -0.94655300
H       -2.94909300      -2.07400500      -0.60805900
H       -1.66713700       1.22076000      -2.23614300
C       -0.37787400      -0.18918300       2.84203100
N       -0.35606300       0.01883900       1.38157900
C       -0.42683300      -1.67221100       3.17864600
N        0.73638600      -2.42132200       2.62609900
H       -0.56341100       0.98280000       1.09057000
H       -1.01962500      -0.61912500       0.90529800
H        0.50749500       0.29483500       3.26169400
H       -1.28287100       0.27004300       3.24280600
H       -1.34259600      -2.11871900       2.78373000
H       -0.41575100      -1.77858200       4.26503900
H        1.67082300      -1.88100700       2.74679200
H        0.62556700      -2.63093100       1.60175200
H        0.82265100      -3.32490600       3.08589200
H        0.60474800      -0.18961500       0.98509500
77
4sa1tma3eda-32
S        4.72781600      -0.71906500       1.08823300
O        5.27236800      -1.01039600      -0.27176100
O        3.27198900      -1.13208200       1.08390800
O        5.49063200      -1.25023800       2.19305900
O        4.71863300       0.85863800       1.28144000
H        4.26088100       1.35312700       0.54430300
S       -3.28099300       1.48621000       0.99333700
O       -1.75057300       1.42781600       1.12050600
O       -3.89057600       0.64492200       2.05507300
O       -3.71159600       2.88878800       0.95135200
O       -3.58150900       0.81041700      -0.36061500
S        2.01589200       2.52445000      -0.41892500
O        1.54216800       3.68006900      -1.23942000
O        1.19798100       1.30478800      -0.77852800
O        3.45760600       2.17493700      -0.73533900
O        1.85696200       2.80909900       1.03703700
S       -0.81759800      -2.38550800      -0.76047400
O       -1.37264200      -1.94502100      -2.07602000
O       -1.94507700      -2.70681200       0.19389100
O        0.06562800      -3.59059900      -0.93041600
O        0.01130300      -1.28001400      -0.15643200
N       -5.03803200      -1.36954400      -0.20258200
C       -4.92201000      -2.24308900       0.98991600
C       -6.33365700      -0.65127600      -0.22264400
C       -4.77401000      -2.11180800      -1.46027900
H       -6.34083400       0.03335300      -1.07064800
H       -7.14902200      -1.37366900      -0.30747600
H       -6.42029300      -0.07670100       0.70031700
H       -3.96849900      -2.76762500       0.93129000
H       -4.96372200      -1.60646000       1.87442500
H       -5.75033500      -2.95648700       0.98690600
H       -3.76037200      -2.51368800      -1.41746600
H       -5.51098300      -2.91174500      -1.56646100
H       -4.85468000      -1.41556100      -2.29587200
H       -4.31238400      -0.59337700      -0.15197800
C       -1.23430300       2.03077700      -2.56318400
C       -1.82440600       3.21337800      -1.80004700
N       -1.07371500       3.52359600      -0.55378900
N       -1.26990900       0.78775600      -1.76650000
H       -0.45719500       0.77959000      -1.12194900
H       -1.21021700      -0.10436800      -2.28913900
H       -1.82618400       1.89090600      -3.47023200
H       -0.19438300       2.22842100      -2.83369800
H       -2.86197700       3.02319400      -1.51649300
H       -1.78138800       4.09519300      -2.44254800
H       -1.14326900       2.72990000       0.13157300
H       -1.50451400       4.31493500      -0.07716800
H       -2.15481600       0.71593900      -1.20605200
H       -0.05562900       3.72743100      -0.76818400
C       -0.33228500      -1.26890400       3.02132800
C        0.48256600       0.01152900       3.14577700
N        1.12316800       0.35519900       1.86202200
N       -1.57392100      -1.02839700       2.24304900
H       -1.75971000      -1.78413700       1.52308700
H       -1.51178600      -0.13515500       1.69084200
H        0.24344500      -2.03780500       2.50181400
H       -0.59820200      -1.64210600       4.01148200
H        1.26707700      -0.11559100       3.89385000
H       -0.15596300       0.84587100       3.44668200
H        0.53315200       0.15552100       1.04072600
H        1.98200600      -0.20779600       1.68502700
H       -2.40312600      -0.86976200       2.81813100
H        1.39359800       1.36594800       1.76832700
C        2.78850800      -2.45068200      -2.21988200
C        2.43986400      -0.96800000      -2.31966400
N        3.63557500      -0.09666800      -2.15519600
N        2.59305200      -2.95996700      -0.83526600
H        3.15034600      -3.79524200      -0.66968200
H        1.54990400      -3.21961100      -0.73526000
H        2.11977100      -3.02767300      -2.86132000
H        3.82091200      -2.63944500      -2.52621900
H        1.71857600      -0.68328300      -1.54841800
H        1.99066200      -0.75054400      -3.28962600
H        4.31928500      -0.49459400      -1.44611600
H        3.40450500       0.85542400      -1.75362100
H        2.85164700      -2.25572400      -0.10117600
H        4.14033500       0.03613500      -3.02871000
