9
1fa1am-1
H       -2.32051800       0.39936700       0.00001800
H        0.50108200       0.77729600       0.00002900
C       -1.26980500       0.07536500      -0.00000800
O       -0.45023500       1.11043200       0.00004300
O       -0.93884100      -1.09256900      -0.00005800
N        1.97983600      -0.10055200       0.00001400
H        2.57030800      -0.02186200      -0.82113400
H        1.55141900      -1.02411700      -0.00002100
H        2.57029300      -0.02191800       0.82117800
