47
3sa1am1dma1eda-10
S       -0.19898700      -1.87013900      -0.96236300
O       -0.38093400      -2.50755900       0.36625200
O       -1.33208400      -2.12753300      -1.86634600
O        0.08836600      -0.41328300      -0.79903600
O        1.05599100      -2.50455100      -1.66840400
H        1.88083000      -2.26064200      -1.16063200
H       -1.23529800       0.56417000      -0.72520300
S        3.65894500      -0.57193900       0.29951800
O        3.11283100      -0.23207000       1.63235500
O        3.15985600      -1.87081400      -0.19712200
O        3.59539600       0.54039800      -0.65511000
O        5.25091000      -0.78327900       0.49897500
H        5.38988600      -1.64628700       0.91207000
S       -2.02774900       1.43146800       1.08311100
O       -2.50863000       0.14066400       1.64322500
O       -1.97532700       1.20213900      -0.52286600
O       -2.89964800       2.57326800       1.25797400
O       -0.60309000       1.65459500       1.48576200
N        0.51612200      -0.76607500       2.31523300
H        0.34136700      -1.03498600       3.27845600
H        0.04512100       0.13720300       2.10601800
H        1.53697400      -0.64884700       2.13527400
H        0.14350000      -1.48629300       1.65848300
C       -4.65435100      -1.00702900      -0.74093700
N       -3.46525700      -1.66950300      -0.16513500
C       -3.72342400      -2.97330900       0.48318300
H       -2.74249100      -1.81406200      -0.90419000
H       -5.38636900      -0.83697200       0.04969000
H       -4.34074700      -0.05079100      -1.16005100
H       -5.08087600      -1.64061800      -1.51989400
H       -4.39844900      -2.82667300       1.32759400
H       -4.17144500      -3.65339300      -0.24273100
H       -2.76635200      -3.37132200       0.82145600
H       -3.04326900      -1.01772500       0.53796200
C        0.01786000       4.10221700      -0.93061400
N       -0.51100200       3.41639700      -2.10740700
C        1.40936300       3.54845100      -0.60735300
N        1.31075000       2.07306400      -0.57088300
H       -0.53329200       4.00045600      -2.93219700
H       -1.43296900       3.03181900      -1.93865200
H        0.09264900       5.18635900      -1.06653700
H       -0.64067800       3.92943200      -0.07405600
H        1.77589600       3.90072300       0.35849300
H        2.13174600       3.81216100      -1.38344800
H        0.72168200       1.77655300       0.22611300
H        2.22194200       1.56922600      -0.54095500
H        0.81522100       1.77529900      -1.42092700
47
3sa1am1dma1eda-12
S       -0.25594700      -1.87537700      -0.97145600
O       -0.44589700      -2.49045800       0.36606600
O       -1.39780000      -2.12119100      -1.86729700
O        0.06430200      -0.42322100      -0.83123500
O        0.98333500      -2.54633600      -1.67396600
H        1.80880200      -2.31983900      -1.16383000
H       -1.22837100       0.58580300      -0.73848200
S        3.62277000      -0.64344700       0.30645600
O        3.64790700       0.43127600      -0.70658700
O        3.08083100      -0.16040500       1.59793800
O        3.05359800      -1.92094100      -0.13324300
O        5.16980500      -1.03167200       0.57996300
H        5.65034400      -0.22337000       0.80419300
S       -1.97573800       1.47664500       1.07823700
O       -2.80808800       2.64666500       1.26107100
O       -2.49346100       0.20275600       1.64412400
O       -1.94735600       1.24541200      -0.52815000
O       -0.54097900       1.65354900       1.46669600
N        0.51523900      -0.78759400       2.31737400
H        1.53681200      -0.66931100       2.14765500
H        0.33007000      -1.06472100       3.27627400
H        0.05462300       0.12149100       2.11055000
H        0.14079500      -1.49821200       1.65073900
C       -3.79040400      -2.88910900       0.51731900
N       -3.50266100      -1.59824200      -0.14439400
C       -4.67903400      -0.90662200      -0.71206500
H       -3.05542400      -0.95318100       0.54923700
H       -4.26528800      -3.56201700      -0.19812200
H       -2.84137500      -3.31114900       0.84893300
H       -4.45182000      -2.71655400       1.36757000
H       -5.13199100      -1.53346200      -1.48149900
H       -5.39686300      -0.71030200       0.08544500
H       -4.34337500       0.03747000      -1.14154000
H       -2.79297600      -1.76857700      -0.89025300
C        0.13585100       4.07508800      -0.93048500
N       -0.42499200       3.41448500      -2.10683600
C        1.51404300       3.47773800      -0.62695200
N        1.37479700       2.00543700      -0.61085800
H       -0.44540100       4.00768200      -2.92509600
H       -1.35333200       3.04967800      -1.92850500
H        0.24139400       5.15745000      -1.05963600
H       -0.51791900       3.91525900      -0.06798400
H        1.89809300       3.80601800       0.34055300
H        2.23635800       3.73249200      -1.40626000
H        0.79303600       1.71237600       0.19227600
H        2.27338300       1.47785500      -0.60482400
H        0.85407000       1.73735200      -1.45612200
47
3sa1am1dma1eda-114
S        3.21149900      -1.05730200       0.59892500
O        2.45078800      -2.31905100       0.45511300
O        3.54749500      -0.42091700      -0.67733800
O        4.60227600      -1.47984900       1.31805100
O        2.61983500      -0.12684800       1.58416300
H        4.99714200      -2.20095700       0.80867200
H        1.33447700      -2.55253800      -0.72176800
S       -2.13756500       1.91907500       0.88333300
O       -0.77544500       2.05066100       1.49579000
O       -2.77048800       0.66861000       1.38802900
O       -2.95628100       3.10857600       0.92213400
O       -1.86520300       1.65057900      -0.69113900
H       -1.23314600       0.88945100      -0.78587900
S       -0.61453500      -1.72173400      -0.86385400
O       -1.66585900      -1.84807300      -1.88320000
O       -0.07993900      -0.32406900      -0.77181200
O       -1.05014700      -2.18457800       0.47532100
O        0.56854500      -2.62998200      -1.36185100
N        0.00338700      -0.48556100       2.40268100
H        1.02902600      -0.47750800       2.22910200
H       -0.36596700       0.46236900       2.18454200
H       -0.44147100      -1.16909100       1.75118100
H       -0.20265400      -0.72936600       3.36660100
C       -4.85896500      -0.09603400      -1.18054900
N       -3.88377800      -0.95315900      -0.47389900
C       -4.44932500      -2.16324400       0.15954400
H       -3.12740600      -1.25139700      -1.12464400
H       -5.61805100       0.23829900      -0.47214600
H       -4.32701700       0.76874400      -1.57813100
H       -5.32172400      -0.66217700      -1.99023100
H       -5.17299000      -1.86456800       0.91931200
H       -4.93466000      -2.77633800      -0.60131200
H       -3.62674600      -2.71627200       0.61380200
H       -3.41894100      -0.37004300       0.26531200
C        1.53341500       2.77801900      -1.33471300
N        1.45671100       1.90116600      -0.14293700
C        2.81541800       2.43127400      -2.09178800
N        3.94663200       2.48241400      -1.16995900
H        0.68279800       2.15109500       0.50293300
H        2.35773700       1.92424700       0.34976500
H        0.63223400       2.62203100      -1.93095600
H        1.55658000       3.81042700      -0.97939800
H        2.92963000       3.13780200      -2.91955400
H        2.71333800       1.43040300      -2.52556900
H        4.66328000       3.13439100      -1.45602100
H        4.35240000       1.56216900      -1.03427300
H        1.28321300       0.92360000      -0.41807400
