53
4sa1am3ma-15
S       -0.80416700      -1.77488400      -0.75667100
O       -0.48848200      -2.16743900       0.65565200
O       -1.27202000      -0.38462100      -0.84335600
O        0.32587900      -2.09618100      -1.65243800
O       -1.98850500      -2.70827800      -1.24062300
H       -2.83839900      -2.34983200      -0.86751300
S        4.59068300       0.20443300      -0.09960600
O        4.25043300       1.63848900      -0.16671100
O        4.50725500      -0.38563900       1.24064600
O        3.91722000      -0.61829700      -1.13708800
O        6.14027400       0.11318500      -0.56999100
H        6.65500900       0.72527700      -0.02615600
S       -4.49320600      -0.17821300      -0.14881600
O       -4.40304600       0.41298500      -1.48871000
O       -4.14858400      -1.61172900      -0.08207400
O       -3.83040400       0.64461100       0.89399400
O       -6.04725700      -0.09382300       0.30968000
H       -6.55622900      -0.70134400      -0.24457300
S        0.90676900       1.80578900       0.51357700
O        1.36954900       0.41621200       0.63528300
O        0.60100300       2.16550800      -0.91105500
O       -0.22647100       2.15310400       1.39325400
O        2.09178600       2.74731600       0.98082800
H        2.94120500       2.38536600       0.61071900
N        1.66379600       0.17429700      -2.49096200
H        1.08656900      -0.67562200      -2.31410000
H        1.23424000       0.97647700      -1.97654400
H        2.60662300      -0.00173100      -2.08532000
H        1.73009200       0.36955400      -3.48504300
C        2.79112000      -3.52056900       0.83358100
N        2.32132100      -2.12632700       0.71642700
H        2.79615400      -1.49213800       1.37066300
H        2.57177900      -1.73414900      -0.20031500
H        2.54335500      -3.90189900       1.82376500
H        2.29020000      -4.11906700       0.07346600
H        3.87015600      -3.54314000       0.68378300
H        1.29040500      -2.05316300       0.81478000
C       -1.65336500      -0.42892700       3.69638800
N       -1.55467700      -0.15134300       2.25144400
H       -1.11809500      -0.93623400       1.72622300
H       -2.48445300       0.01458700       1.82025500
H       -0.65267000      -0.56597500       4.10623400
H       -2.13786000       0.41143000       4.19307800
H       -2.24191000      -1.33348000       3.84877500
H       -0.99207100       0.69797000       2.04958000
C       -2.64449000       3.56516600      -1.03494700
N       -2.22002500       2.15422400      -0.94846800
H       -1.19390200       2.05152400      -1.06076000
H       -2.47038200       1.75426600      -0.03514200
H       -2.39814600       3.95534300      -2.02200600
H       -3.71986800       3.62148500      -0.86847000
H       -2.11217700       4.13207600      -0.27196000
H       -2.72242800       1.54520300      -1.60670000
53
4sa1am3ma-12
S       -4.74065800      -0.16828900      -0.19818900
O       -4.44512700       1.24488400       0.10281800
O       -4.60367000      -0.51745700      -1.62461600
O       -4.07535000      -1.14367600       0.68397900
O       -6.30279700      -0.36054600       0.18563000
H       -6.80517900       0.35167900      -0.23329600
S        4.56744300      -0.13115800       0.11056000
O        4.41146000      -0.15180400       1.56332900
O        4.17220000      -1.37500000      -0.57995500
O        3.98582600       1.09165300      -0.50945900
O        6.14286700       0.06100800      -0.22210400
H        6.61013400      -0.73604000       0.06385800
S        0.86050100      -1.93267100      -0.21973800
O        0.80516500      -1.56753300      -1.65578400
O        1.09584000      -0.76563800       0.65500900
O       -0.33794400      -2.70353500       0.19508800
O        2.06991000      -2.92918200      -0.01461300
H        2.91389200      -2.42363900      -0.17226700
S       -1.06636500       1.89851300      -0.05632900
O       -1.22810900       0.70822400      -0.91453200
O       -1.00551500       1.56630400       1.38566400
O        0.10278200       2.71731200      -0.46625800
O       -2.32183000       2.82526500      -0.29923700
H       -3.14454400       2.27418200      -0.18731000
N       -2.12112500      -1.70564100      -1.81598200
H       -1.76482300      -2.01337700      -2.71640700
H       -1.78407700      -2.35100000      -1.08777100
H       -1.71712400      -0.77847300      -1.58416700
H       -3.15106300      -1.57643900      -1.81800000
C       -1.63211900      -1.28822600       3.47737900
N       -1.69714700      -1.02854200       2.02691100
H       -1.15710400      -1.72323700       1.48253600
H       -2.66821300      -1.04395800       1.65851900
H       -0.58927100      -1.27801500       3.79461300
H       -2.18775400      -0.51270900       4.00418600
H       -2.06972900      -2.26298800       3.69155400
H       -1.32061500      -0.08778400       1.79022400
C        1.85694100       1.29160200      -3.54100900
N        1.70929900       1.00499500      -2.10002300
H        1.29544400       0.06039900      -1.94291600
H        2.62596500       1.00919000      -1.61063300
H        0.87237100       1.28908600      -4.00822700
H        2.32183400       2.26858900      -3.67074800
H        2.48337800       0.52276300      -3.99245600
H        1.09661700       1.69369600      -1.62901900
C        2.17954400       1.98272400       2.85937800
N        2.02988800       1.73955200       1.41023400
H        1.67674300       0.78316300       1.22752400
H        1.35866100       2.37589300       0.95481000
H        2.87714500       1.24536500       3.25485300
H        2.56796900       2.98828200       3.01847800
H        1.20041500       1.88601700       3.32728300
H        2.92593100       1.78566600       0.90176800
53
4sa1am3ma-16
S       -1.00911200       1.70088500       0.70187900
O       -0.89447700       2.24727100      -0.67623500
O       -1.34041000       0.26577900       0.70885400
O        0.19346500       2.03727500       1.50647600
O       -2.19353500       2.45647600       1.42888100
H       -3.05221600       2.09469300       1.07869100
S        4.66810800      -0.05088100      -0.09482800
O        4.15306500       0.17889500       1.27371200
O        4.32116800      -1.38373000      -0.62387100
O        4.42119500       1.08307400      -0.99554000
O        6.28311500      -0.06468200       0.02929700
H        6.54901600      -0.93453500       0.35673900
S        0.89958900      -1.63805700      -0.94365000
O        1.24610700      -0.20666100      -0.91182100
O        0.77343600      -2.21678200       0.41859300
O       -0.30535500      -1.93896800      -1.76112200
O        2.07732700      -2.38589700      -1.68778400
H        2.94036600      -2.02956900      -1.34018700
S       -4.75634900       0.06985700      -0.12883200
O       -4.41587500       1.42906500       0.33166500
O       -4.22872900      -0.22945500      -1.48070300
O       -4.51046700      -1.01696800       0.82749300
O       -6.36948600       0.07099400      -0.26738600
H       -6.63678500       0.92107800      -0.64231500
N       -1.75075100       0.33940500      -2.45001100
H       -1.15879000      -0.50328700      -2.30696800
H       -2.72097300       0.13962400      -2.11436000
H       -1.37383400       1.11338900      -1.85821000
H       -1.76442500       0.60400000      -3.43026100
C       -2.05128200      -3.67864800       1.05744400
N       -2.13644500      -2.33973400       0.43964800
H       -3.10091600      -1.94323200       0.45890800
H       -1.55285300      -1.64768500       0.92259200
H       -2.66147100      -4.37511200       0.48326300
H       -1.00860400      -3.99456900       1.05178500
H       -2.42872600      -3.62151000       2.07812100
H       -1.75671700      -2.34411200      -0.51804700
C        1.95846400       3.71466800      -1.33389800
N        2.03733300       2.39271000      -0.68019300
H        3.00476900       2.00199300      -0.66616000
H        1.63293200       2.41846100       0.26748100
H        2.35756500       3.63376500      -2.34465300
H        0.91442200       4.02543200      -1.35807900
H        2.55236200       4.42948400      -0.76518100
H        1.47334200       1.68239600      -1.16080700
C        1.61524600      -0.63875300       3.64084100
N        1.62236700      -0.28037300       2.21008500
H        2.58896300      -0.10825700       1.86020600
H        1.23718900      -1.03850100       1.61198900
H        2.05634500       0.17334100       4.21830200
H        0.58798700      -0.80112200       3.96781500
H        2.19845500      -1.54801400       3.78531500
H        1.06037200       0.56981800       2.02379900
