2mea.log
 OpenBabel02271919113D
Gaussian 09 #p opt freq wB97XD/6-31++G(d,p) iop(5/13=1) iop(1/11=1)
 22 20  0  0  0  0  0  0  0  0999 V2000
    1.3519   -1.1572    0.7757 N   0  0  0  0  0  0  0  0  0  0  0  0
    2.3348   -0.6193   -0.1740 C   0  0  0  0  0  0  0  0  0  0  0  0
    1.2549   -0.4874    1.5352 H   0  0  0  0  0  0  0  0  0  0  0  0
    1.6948   -2.0192    1.1884 H   0  0  0  0  0  0  0  0  0  0  0  0
    3.2924   -0.3917    0.3156 H   0  0  0  0  0  0  0  0  0  0  0  0
    2.5224   -1.3702   -0.9493 H   0  0  0  0  0  0  0  0  0  0  0  0
    1.7927    0.6515   -0.8231 C   0  0  0  0  0  0  0  0  0  0  0  0
    2.5833    1.1045   -1.4323 H   0  0  0  0  0  0  0  0  0  0  0  0
    0.9658    0.3898   -1.4980 H   0  0  0  0  0  0  0  0  0  0  0  0
    1.3783    1.5923    0.1374 O   0  0  0  0  0  0  0  0  0  0  0  0
    0.4140    1.4788    0.2952 H   0  0  0  0  0  0  0  0  0  0  0  0
   -1.3521    1.1581    0.7750 N   0  0  0  0  0  0  0  0  0  0  0  0
   -2.3351    0.6189   -0.1738 C   0  0  0  0  0  0  0  0  0  0  0  0
   -1.2539    0.4890    1.5350 H   0  0  0  0  0  0  0  0  0  0  0  0
   -1.6953    2.0202    1.1872 H   0  0  0  0  0  0  0  0  0  0  0  0
   -3.2921    0.3905    0.3164 H   0  0  0  0  0  0  0  0  0  0  0  0
   -2.5239    1.3693   -0.9493 H   0  0  0  0  0  0  0  0  0  0  0  0
   -1.7923   -0.6516   -0.8229 C   0  0  0  0  0  0  0  0  0  0  0  0
   -2.5826   -1.1046   -1.4327 H   0  0  0  0  0  0  0  0  0  0  0  0
   -0.9652   -0.3895   -1.4973 H   0  0  0  0  0  0  0  0  0  0  0  0
   -1.3782   -1.5928    0.1373 O   0  0  0  0  0  0  0  0  0  0  0  0
   -0.4144   -1.4785    0.2968 H   0  0  0  0  0  0  0  0  0  0  0  0
  1  4  1  0  0  0  0
  1  3  1  0  0  0  0
  2  5  1  0  0  0  0
  2  1  1  0  0  0  0
  6  2  1  0  0  0  0
  7  2  1  0  0  0  0
  7 10  1  0  0  0  0
  8  7  1  0  0  0  0
  9  7  1  0  0  0  0
 10 11  1  0  0  0  0
 12 15  1  0  0  0  0
 12 14  1  0  0  0  0
 13 16  1  0  0  0  0
 13 12  1  0  0  0  0
 17 13  1  0  0  0  0
 18 13  1  0  0  0  0
 18 21  1  0  0  0  0
 19 18  1  0  0  0  0
 20 18  1  0  0  0  0
 21 22  1  0  0  0  0
M  END
$$$$
