2sa_2mea.log
 OpenBabel02271919113D
Gaussian appl/chem/G09RevD.01/g09/g09 #p opt freq wB97XD/6-31++G(d,p) iop(5/13=1
 36 32  0  0  0  0  0  0  0  0999 V2000
   -0.6214   -1.6515   -0.7100 S   0  0  0  0  0  0  0  0  0  0  0  0
   -0.3510   -1.0123    0.6337 O   0  0  0  0  0  0  0  0  0  0  0  0
    0.5525   -2.3793   -1.1892 O   0  0  0  0  0  0  0  0  0  0  0  0
    2.6061   -0.3762   -0.2127 H   0  0  0  0  0  0  0  0  0  0  0  0
   -2.5043    0.8012   -0.4550 H   0  0  0  0  0  0  0  0  0  0  0  0
   -1.8964   -2.3595   -0.7394 O   0  0  0  0  0  0  0  0  0  0  0  0
   -0.8678   -0.3899   -1.6866 O   0  0  0  0  0  0  0  0  0  0  0  0
   -2.2344    1.0215    0.5106 N   0  0  0  0  0  0  0  0  0  0  0  0
   -3.4145    0.8395    1.3869 C   0  0  0  0  0  0  0  0  0  0  0  0
   -1.4893    0.3268    0.7382 H   0  0  0  0  0  0  0  0  0  0  0  0
   -1.7840    1.9540    0.5047 H   0  0  0  0  0  0  0  0  0  0  0  0
   -3.1159    1.0101    2.4231 H   0  0  0  0  0  0  0  0  0  0  0  0
   -4.1627    1.5806    1.0990 H   0  0  0  0  0  0  0  0  0  0  0  0
   -3.9417   -0.5787    1.1687 C   0  0  0  0  0  0  0  0  0  0  0  0
   -3.2216   -1.3066    1.5629 H   0  0  0  0  0  0  0  0  0  0  0  0
   -4.8833   -0.6942    1.7160 H   0  0  0  0  0  0  0  0  0  0  0  0
   -4.1580   -0.7783   -0.2079 O   0  0  0  0  0  0  0  0  0  0  0  0
   -3.5275   -1.4459   -0.5302 H   0  0  0  0  0  0  0  0  0  0  0  0
    0.9354    2.5679   -0.1854 S   0  0  0  0  0  0  0  0  0  0  0  0
    1.0431    1.4303   -1.1352 O   0  0  0  0  0  0  0  0  0  0  0  0
    1.7498    3.7909   -0.8588 O   0  0  0  0  0  0  0  0  0  0  0  0
    1.2733    4.0826   -1.6483 H   0  0  0  0  0  0  0  0  0  0  0  0
   -0.1283    0.2636   -1.5916 H   0  0  0  0  0  0  0  0  0  0  0  0
   -0.4506    3.0437   -0.0253 O   0  0  0  0  0  0  0  0  0  0  0  0
    1.6654    2.3295    1.0650 O   0  0  0  0  0  0  0  0  0  0  0  0
    2.3236   -0.3447    0.7706 N   0  0  0  0  0  0  0  0  0  0  0  0
    3.1427   -1.2947    1.5578 C   0  0  0  0  0  0  0  0  0  0  0  0
    2.3639    0.6456    1.0706 H   0  0  0  0  0  0  0  0  0  0  0  0
    1.3105   -0.6076    0.7837 H   0  0  0  0  0  0  0  0  0  0  0  0
    4.1850   -0.9770    1.4861 H   0  0  0  0  0  0  0  0  0  0  0  0
    2.8220   -1.2485    2.6008 H   0  0  0  0  0  0  0  0  0  0  0  0
    2.9597   -2.6926    0.9701 C   0  0  0  0  0  0  0  0  0  0  0  0
    3.6574   -3.3762    1.4645 H   0  0  0  0  0  0  0  0  0  0  0  0
    1.9393   -3.0451    1.1633 H   0  0  0  0  0  0  0  0  0  0  0  0
    3.2314   -2.6640   -0.4107 O   0  0  0  0  0  0  0  0  0  0  0  0
    2.3857   -2.7190   -0.8831 H   0  0  0  0  0  0  0  0  0  0  0  0
  1  2  1  0  0  0  0
  3  1  2  0  0  0  0
  4 26  1  0  0  0  0
  5  8  1  0  0  0  0
  6  1  2  0  0  0  0
  7 23  1  0  0  0  0
  7  1  1  0  0  0  0
  8 10  1  0  0  0  0
  8  9  1  0  0  0  0
  9 12  1  0  0  0  0
 11  8  1  0  0  0  0
 13  9  1  0  0  0  0
 14  9  1  0  0  0  0
 14 15  1  0  0  0  0
 14 16  1  0  0  0  0
 17 14  1  0  0  0  0
 18 17  1  0  0  0  0
 19 24  2  0  0  0  0
 19 25  1  0  0  0  0
 20 19  2  0  0  0  0
 21 19  1  0  0  0  0
 22 21  1  0  0  0  0
 26 29  1  0  0  0  0
 26 28  1  0  0  0  0
 26 27  1  0  0  0  0
 27 31  1  0  0  0  0
 30 27  1  0  0  0  0
 32 34  1  0  0  0  0
 32 33  1  0  0  0  0
 32 27  1  0  0  0  0
 35 32  1  0  0  0  0
 36 35  1  0  0  0  0
M  RAD  2   2   2  25   2
M  END
$$$$
