2sa_4mea.log
 OpenBabel02271919113D
Gaussian appl/chem/G09RevD.01/g09/g09 #p opt freq wB97XD/6-31++G(d,p) iop(5/13=1
 58 52  0  0  0  0  0  0  0  0999 V2000
   -2.1474   -0.9954    0.9352 S   0  0  0  0  0  0  0  0  0  0  0  0
   -0.8324   -0.4000    0.3451 O   0  0  0  0  0  0  0  0  0  0  0  0
   -2.5157   -2.1313    0.0350 O   0  0  0  0  0  0  0  0  0  0  0  0
    0.1226   -1.5725   -0.3361 H   0  0  0  0  0  0  0  0  0  0  0  0
    0.3006   -0.0472    1.4477 H   0  0  0  0  0  0  0  0  0  0  0  0
   -1.8219   -1.4715    2.3092 O   0  0  0  0  0  0  0  0  0  0  0  0
   -3.1620    0.0819    0.9426 O   0  0  0  0  0  0  0  0  0  0  0  0
    1.0731    0.2452    2.1097 N   0  0  0  0  0  0  0  0  0  0  0  0
    1.0294   -0.5408    3.3636 C   0  0  0  0  0  0  0  0  0  0  0  0
    1.9587    0.1214    1.6039 H   0  0  0  0  0  0  0  0  0  0  0  0
    0.8914    1.2658    2.2940 H   0  0  0  0  0  0  0  0  0  0  0  0
    1.7333   -0.1016    4.0768 H   0  0  0  0  0  0  0  0  0  0  0  0
    0.0147   -0.4542    3.7593 H   0  0  0  0  0  0  0  0  0  0  0  0
    1.3893   -2.0069    3.1392 C   0  0  0  0  0  0  0  0  0  0  0  0
    2.4193   -2.0851    2.7722 H   0  0  0  0  0  0  0  0  0  0  0  0
    1.3444   -2.5097    4.1155 H   0  0  0  0  0  0  0  0  0  0  0  0
    0.5659   -2.6523    2.1990 O   0  0  0  0  0  0  0  0  0  0  0  0
   -0.3745   -2.3692    2.3255 H   0  0  0  0  0  0  0  0  0  0  0  0
    3.0041    0.5534   -0.9013 S   0  0  0  0  0  0  0  0  0  0  0  0
    2.0943    0.3298   -2.0402 O   0  0  0  0  0  0  0  0  0  0  0  0
    4.5108    0.4597   -1.4919 O   0  0  0  0  0  0  0  0  0  0  0  0
    4.6484    1.2051   -2.0926 H   0  0  0  0  0  0  0  0  0  0  0  0
   -0.8467    0.7341   -1.1197 H   0  0  0  0  0  0  0  0  0  0  0  0
    2.8801    1.8772   -0.2756 O   0  0  0  0  0  0  0  0  0  0  0  0
    2.9855   -0.5618    0.0742 O   0  0  0  0  0  0  0  0  0  0  0  0
    0.8653   -2.2986   -0.5419 N   0  0  0  0  0  0  0  0  0  0  0  0
    0.8058   -2.8272   -1.9243 C   0  0  0  0  0  0  0  0  0  0  0  0
    1.7619   -1.8158   -0.3540 H   0  0  0  0  0  0  0  0  0  0  0  0
    0.7429   -2.9916    0.2049 H   0  0  0  0  0  0  0  0  0  0  0  0
    1.1940   -2.0409   -2.5764 H   0  0  0  0  0  0  0  0  0  0  0  0
    1.4675   -3.6949   -1.9935 H   0  0  0  0  0  0  0  0  0  0  0  0
   -0.6172   -3.1967   -2.3231 C   0  0  0  0  0  0  0  0  0  0  0  0
   -0.5853   -3.6330   -3.3271 H   0  0  0  0  0  0  0  0  0  0  0  0
   -1.0182   -3.9549   -1.6386 H   0  0  0  0  0  0  0  0  0  0  0  0
   -1.4610   -2.0680   -2.3404 O   0  0  0  0  0  0  0  0  0  0  0  0
   -1.9791   -2.0630   -1.4870 H   0  0  0  0  0  0  0  0  0  0  0  0
   -0.7541    0.6734   -2.1524 N   0  0  0  0  0  0  0  0  0  0  0  0
   -1.6807    1.6099   -2.8278 C   0  0  0  0  0  0  0  0  0  0  0  0
    0.2405    0.8585   -2.3316 H   0  0  0  0  0  0  0  0  0  0  0  0
   -0.9569   -0.3160   -2.3893 H   0  0  0  0  0  0  0  0  0  0  0  0
   -1.2826    2.6169   -2.6903 H   0  0  0  0  0  0  0  0  0  0  0  0
   -1.7043    1.3660   -3.8933 H   0  0  0  0  0  0  0  0  0  0  0  0
   -3.0696    1.5154   -2.2025 C   0  0  0  0  0  0  0  0  0  0  0  0
   -3.7585    2.0989   -2.8256 H   0  0  0  0  0  0  0  0  0  0  0  0
   -3.4169    0.4722   -2.2137 H   0  0  0  0  0  0  0  0  0  0  0  0
   -3.0568    2.0410   -0.9037 O   0  0  0  0  0  0  0  0  0  0  0  0
   -3.1610    1.3242   -0.2398 H   0  0  0  0  0  0  0  0  0  0  0  0
    0.0710    2.8299    2.6751 N   0  0  0  0  0  0  0  0  0  0  0  0
   -1.0270    3.0397    1.7082 C   0  0  0  0  0  0  0  0  0  0  0  0
   -0.3222    2.6728    3.5995 H   0  0  0  0  0  0  0  0  0  0  0  0
    0.6384    3.6709    2.7491 H   0  0  0  0  0  0  0  0  0  0  0  0
   -1.5455    2.0878    1.5573 H   0  0  0  0  0  0  0  0  0  0  0  0
   -1.7630    3.7643    2.0833 H   0  0  0  0  0  0  0  0  0  0  0  0
   -0.5219    3.5442    0.3657 C   0  0  0  0  0  0  0  0  0  0  0  0
   -1.4005    3.7996   -0.2320 H   0  0  0  0  0  0  0  0  0  0  0  0
    0.0800    4.4566    0.5012 H   0  0  0  0  0  0  0  0  0  0  0  0
    0.1971    2.5783   -0.3728 O   0  0  0  0  0  0  0  0  0  0  0  0
    1.1430    2.5663   -0.1618 H   0  0  0  0  0  0  0  0  0  0  0  0
  1  7  1  0  0  0  0
  1  6  1  0  0  0  0
  2  1  2  0  0  0  0
  3  1  2  0  0  0  0
  5  8  1  0  0  0  0
  8 11  1  0  0  0  0
  8  9  1  0  0  0  0
  9 13  1  0  0  0  0
  9 12  1  0  0  0  0
 10  8  1  0  0  0  0
 14  9  1  0  0  0  0
 14 16  1  0  0  0  0
 15 14  1  0  0  0  0
 17 18  1  0  0  0  0
 17 14  1  0  0  0  0
 19 24  2  0  0  0  0
 19 25  1  0  0  0  0
 20 19  2  0  0  0  0
 21 19  1  0  0  0  0
 22 21  1  0  0  0  0
 26 28  1  0  0  0  0
 26  4  1  0  0  0  0
 26 29  1  0  0  0  0
 27 26  1  0  0  0  0
 30 27  1  0  0  0  0
 31 27  1  0  0  0  0
 32 27  1  0  0  0  0
 32 34  1  0  0  0  0
 33 32  1  0  0  0  0
 35 32  1  0  0  0  0
 35 36  1  0  0  0  0
 37 23  1  0  0  0  0
 38 41  1  0  0  0  0
 38 43  1  0  0  0  0
 38 37  1  0  0  0  0
 39 37  1  0  0  0  0
 40 37  1  0  0  0  0
 42 38  1  0  0  0  0
 43 46  1  0  0  0  0
 44 43  1  0  0  0  0
 45 43  1  0  0  0  0
 46 47  1  0  0  0  0
 48 51  1  0  0  0  0
 48 50  1  0  0  0  0
 49 53  1  0  0  0  0
 49 48  1  0  0  0  0
 52 49  1  0  0  0  0
 54 56  1  0  0  0  0
 54 49  1  0  0  0  0
 55 54  1  0  0  0  0
 57 58  1  0  0  0  0
 57 54  1  0  0  0  0
M  RAD  3   6   2   7   2  25   2
M  END
$$$$
