4sa_1mea.log
 OpenBabel02271919113D
Gaussian 09 #p opt freq wB97XD/6-31++G(d,p) iop(5/13=1) iop(1/11=1)
 39 34  0  0  0  0  0  0  0  0999 V2000
   -2.0278   -1.5875   -0.9989 S   0  0  0  0  0  0  0  0  0  0  0  0
   -0.8686   -1.8468   -0.1055 O   0  0  0  0  0  0  0  0  0  0  0  0
   -1.8582   -2.7667   -2.0745 O   0  0  0  0  0  0  0  0  0  0  0  0
   -2.5728   -2.7223   -2.7264 H   0  0  0  0  0  0  0  0  0  0  0  0
    0.1820    0.0716    0.0400 H   0  0  0  0  0  0  0  0  0  0  0  0
   -3.3273   -1.7643   -0.3441 O   0  0  0  0  0  0  0  0  0  0  0  0
   -1.8922   -0.3058   -1.7159 O   0  0  0  0  0  0  0  0  0  0  0  0
    0.0257    1.0160    0.4128 N   0  0  0  0  0  0  0  0  0  0  0  0
    0.4631    1.1007    1.8328 C   0  0  0  0  0  0  0  0  0  0  0  0
    0.6042    1.6521   -0.1541 H   0  0  0  0  0  0  0  0  0  0  0  0
   -0.9788    1.2449    0.3241 H   0  0  0  0  0  0  0  0  0  0  0  0
    1.5342    0.8897    1.8533 H   0  0  0  0  0  0  0  0  0  0  0  0
    0.3001    2.1279    2.1652 H   0  0  0  0  0  0  0  0  0  0  0  0
   -0.3120    0.1410    2.7223 C   0  0  0  0  0  0  0  0  0  0  0  0
    0.0156    0.2874    3.7535 H   0  0  0  0  0  0  0  0  0  0  0  0
   -1.3853    0.3436    2.6670 H   0  0  0  0  0  0  0  0  0  0  0  0
   -0.0638   -1.2245    2.3979 O   0  0  0  0  0  0  0  0  0  0  0  0
   -0.6579   -1.5163    1.6833 H   0  0  0  0  0  0  0  0  0  0  0  0
   -3.9854    1.5872    0.2214 S   0  0  0  0  0  0  0  0  0  0  0  0
   -3.7569    1.5879   -1.3430 O   0  0  0  0  0  0  0  0  0  0  0  0
   -4.8525    0.2969    0.4866 O   0  0  0  0  0  0  0  0  0  0  0  0
   -4.3362   -0.5177    0.2553 H   0  0  0  0  0  0  0  0  0  0  0  0
   -3.0772    0.9063   -1.5887 H   0  0  0  0  0  0  0  0  0  0  0  0
   -2.6779    1.3853    0.8568 O   0  0  0  0  0  0  0  0  0  0  0  0
   -4.7786    2.7274    0.5609 O   0  0  0  0  0  0  0  0  0  0  0  0
    2.4907   -2.1412    0.2549 S   0  0  0  0  0  0  0  0  0  0  0  0
    2.2700   -2.1703    1.8044 O   0  0  0  0  0  0  0  0  0  0  0  0
    1.4410   -3.1566   -0.3284 O   0  0  0  0  0  0  0  0  0  0  0  0
    0.5371   -2.7462   -0.3782 H   0  0  0  0  0  0  0  0  0  0  0  0
    1.3735   -1.7852    2.0762 H   0  0  0  0  0  0  0  0  0  0  0  0
    2.1063   -0.7965   -0.2273 O   0  0  0  0  0  0  0  0  0  0  0  0
    3.8072   -2.6235   -0.0260 O   0  0  0  0  0  0  0  0  0  0  0  0
    3.5439    2.2594   -0.7030 S   0  0  0  0  0  0  0  0  0  0  0  0
    3.9639    1.9186    0.8157 O   0  0  0  0  0  0  0  0  0  0  0  0
    3.7608    0.8895   -1.4394 O   0  0  0  0  0  0  0  0  0  0  0  0
    3.1631    0.1874   -1.0608 H   0  0  0  0  0  0  0  0  0  0  0  0
    4.9287    1.8474    0.8771 H   0  0  0  0  0  0  0  0  0  0  0  0
    2.1285    2.5581   -0.6004 O   0  0  0  0  0  0  0  0  0  0  0  0
    4.4658    3.2014   -1.2673 O   0  0  0  0  0  0  0  0  0  0  0  0
  1  6  2  0  0  0  0
  1  2  1  0  0  0  0
  3  1  1  0  0  0  0
  4  3  1  0  0  0  0
  5  8  1  0  0  0  0
  7  1  2  0  0  0  0
  8  9  1  0  0  0  0
  9 12  1  0  0  0  0
  9 13  1  0  0  0  0
  9 14  1  0  0  0  0
 10  8  1  0  0  0  0
 11  8  1  0  0  0  0
 14 15  1  0  0  0  0
 16 14  1  0  0  0  0
 17 14  1  0  0  0  0
 18 17  1  0  0  0  0
 19 21  1  0  0  0  0
 19 25  2  0  0  0  0
 19 24  2  0  0  0  0
 20 19  1  0  0  0  0
 22 21  1  0  0  0  0
 23 20  1  0  0  0  0
 26 27  1  0  0  0  0
 27 30  1  0  0  0  0
 28 26  1  0  0  0  0
 29 28  1  0  0  0  0
 31 26  2  0  0  0  0
 32 26  2  0  0  0  0
 33 38  2  0  0  0  0
 33 34  1  0  0  0  0
 34 37  1  0  0  0  0
 35 36  1  0  0  0  0
 35 33  1  0  0  0  0
 39 33  2  0  0  0  0
M  RAD  1   2   2
M  END
$$$$
