49
4sa1am1ma1dma-43
S       -2.74850100      -1.77539300      -0.03820600
O       -2.10469900      -2.26756700       1.19613400
O       -3.50222700      -0.52619500       0.14812200
O       -3.82536500      -2.90311100      -0.45856300
O       -1.83614300      -1.78065200      -1.20293800
H       -4.54309700      -2.90524500       0.19095000
H       -1.41616100      -1.21440500       2.37890900
S       -2.32613200       2.76040100      -0.69350000
O       -2.15475800       2.29720900       0.79637200
O       -3.22523800       3.87674700      -0.71773100
O       -2.96277300       1.49312200      -1.40293400
O       -1.00338900       2.89958600      -1.31369300
H       -3.27533200       0.78735200      -0.76549900
H       -1.45366100       1.57769000       0.85699800
S        3.29846300      -0.76001500      -1.17719400
O        2.54115100      -1.94756600      -1.62970500
O        4.61253000      -0.56873200      -1.74345400
O        2.40699700       0.45803500      -1.27757500
O        3.54853900      -0.92269100       0.40772400
H        2.69265700      -1.08438100       0.87451300
H        0.83796400       0.25367900      -1.83048600
S        0.31976100      -0.10867600       1.92089800
O       -0.34112800       0.43229000       0.69819900
O       -0.83084800      -0.59666500       2.88887200
O        1.13754000      -1.30477700       1.57699200
O        1.06674300       0.90642800       2.66535600
N       -0.14623300       0.33756300      -2.18173700
H       -0.17468600       0.19055200      -3.18710300
H       -0.47734400       1.29284700      -1.95650200
H       -0.76364400      -0.34727700      -1.71806700
C        0.40700500      -4.63141000      -0.09039400
N        0.47217400      -3.17623500      -0.33305600
H        1.29632900      -2.87639200      -0.89442500
H       -0.37877700      -2.82040900      -0.79691400
H        1.31030000      -4.94646600       0.43093000
H       -0.46943300      -4.84642400       0.52040800
H        0.33326200      -5.15334700      -1.04394600
H        0.54875700      -2.63250800       0.54483300
C        1.92377600       3.55681000       0.31043100
N        2.56700900       2.28912800       0.72602100
C        3.99128600       2.40832100       1.11368600
H        2.03168400       1.87087300       1.51011300
H        2.49106800       3.98516800      -0.51704900
H        0.90455500       3.34682300      -0.01738300
H        1.91350900       4.24883500       1.15352400
H        4.55797000       2.78947400       0.26335300
H        4.07951600       3.08801500       1.96218400
H        4.35798900       1.41643000       1.37838700
H        2.50064400       1.59885900      -0.06004300
49
4sa1am1ma1dma-38
S        1.15947200       1.15433800       2.39351200
O        0.17844500       2.20822300       2.16411000
O        1.97442400       1.14959200       3.57657200
O        0.44399300      -0.25209000       2.31808000
O        2.13220900       1.10059500       1.14790800
H        1.81396100       1.66990600       0.33031600
H       -0.46681400      -0.19339900       1.91658200
S       -0.05404300      -2.61656700      -0.78776400
O       -0.83343400      -2.92101500      -1.99992200
O        1.27581900      -3.24058700      -0.72608900
O        0.01298900      -1.13385800      -0.56174500
O       -0.82107200      -3.20610400       0.46897500
H       -1.70657600      -2.76556700       0.53319300
H        1.05309100      -0.32106400      -1.41727900
S       -3.13637900      -0.35565900       0.72226100
O       -2.07452800       0.13986100       1.61831100
O       -3.28174400       0.46412600      -0.50112300
O       -3.09664400      -1.80318200       0.47347000
O       -4.52883000      -0.05573900       1.48284600
H       -4.54490800      -0.55467100       2.31188700
S        1.25252300       1.69558900      -2.15654200
O        2.05308400       2.23488600      -3.22595300
O        1.76020700       0.19851500      -1.90882100
O        1.40662100       2.39466800      -0.83604400
O       -0.21665000       1.57457200      -2.43390200
N       -1.97130900      -0.54046700      -2.78523100
H       -1.20802100       0.16553300      -2.80465800
H       -2.60241900      -0.26901000      -2.00898100
H       -2.47225300      -0.55016100      -3.66905700
H       -1.57297000      -1.48614600      -2.57591800
C       -1.43244900       4.08726400      -0.20722500
N       -1.45786900       2.61080500      -0.12583200
H       -2.39788400       2.20004800      -0.11637700
H       -0.97595000       2.19660300      -0.94776500
H       -1.92120100       4.50557000       0.67188700
H       -0.39026600       4.40201000      -0.24243700
H       -1.94704600       4.40571900      -1.11325700
H       -0.96279200       2.29355100       0.72322800
C        3.22837900      -2.02953400       1.87565900
N        3.01202300      -1.52585700       0.49900700
C        4.24874300      -1.29106800      -0.28017500
H        2.39075800      -2.19682100      -0.00947300
H        3.79792800      -1.29091700       2.44126100
H        2.25476400      -2.17715200       2.34197900
H        3.77004600      -2.97451800       1.82580400
H        4.87089900      -0.56980900       0.25129800
H        4.78044200      -2.23612900      -0.39519900
H        3.96733100      -0.89199700      -1.25462300
H        2.49764200      -0.63585200       0.56555300
49
4sa1am1ma1dma-17
S       -3.40883400      -1.53970200      -0.29729600
O       -3.65031100      -0.74921700       0.90909200
O       -4.38773800      -2.49384800      -0.73175100
O       -3.13778300      -0.54875700      -1.50490500
O       -2.00673200      -2.24315000      -0.16878300
H       -1.55528600      -2.12545800       0.77361600
H       -2.93575800       0.37633900      -1.17813300
S       -1.26707500       2.47782400      -0.68131300
O       -0.31868100       1.83168500      -1.59809700
O       -2.60794300       1.85576000      -0.67031200
O       -0.73944800       2.70758300       0.67951000
O       -1.47754800       3.98753000      -1.21837300
H       -1.88537200       3.95459200      -2.09525400
S        3.37974400      -1.09863100      -0.80703100
O        3.54905000      -1.24863000       0.65657700
O        2.48668800      -2.11139200      -1.39794000
O        3.08058700       0.27752000      -1.23107900
O        4.84833900      -1.35291800      -1.43737100
H        5.13721400      -2.24201700      -1.18886200
S        0.31693800      -1.00579200       1.96436500
O        0.49520600      -0.36808500       0.64483000
O        0.24725100      -0.01899100       3.06614200
O       -0.87193300      -1.90487000       2.00061100
O        1.56317300      -1.93214900       2.22852900
H        2.31694800      -1.69886400       1.61008000
N       -2.20743400       1.07985700       2.49425200
H       -1.84783100       1.82851400       1.87799400
H       -1.36753900       0.63339300       2.93033300
H       -2.83674500       1.45714200       3.19697200
H       -2.71103100       0.38043300       1.91444600
C       -0.35639800      -1.23503500      -3.39215000
N       -0.01362700      -1.03282400      -1.96961400
H       -0.69696800      -1.48236500      -1.34704400
H        0.92044400      -1.42889300      -1.73648200
H       -1.35407600      -0.83826900      -3.57661400
H        0.37808600      -0.71694600      -4.00774800
H       -0.33601300      -2.30157800      -3.61373400
H       -0.00349200      -0.03239000      -1.72297200
C        2.43616800       3.23328400      -0.20139900
N        2.05492700       2.04306500       0.58965300
C        2.79758500       1.89651800       1.86215400
H        1.04010900       2.06700300       0.76737800
H        3.50301100       3.18014500      -0.41996300
H        1.86779000       3.22020300      -1.13073300
H        2.20487800       4.13368200       0.36901900
H        3.83939600       1.67099300       1.63387700
H        2.72256800       2.82773400       2.42603100
H        2.35458700       1.08408800       2.43632500
H        2.23410700       1.20949400      -0.00321200
