65
4sa2ma1dma1tma-10
S        1.22587900       3.06758500      -0.06103700
O        0.14247600       3.23017300      -1.06163800
O        1.61173400       1.61812000       0.03289600
O        2.38278200       3.93266800      -0.21611900
O        0.59534100       3.44229900       1.36407200
H       -0.32307900       3.07656000       1.41796300
S       -1.54014200      -2.83935900      -0.39805900
O       -0.50099500      -2.71109900      -1.46121400
O       -1.61506800      -1.59275900       0.40436900
O       -2.85630400      -3.25868000      -0.89250300
O       -1.06075700      -4.00254600       0.57456200
H       -0.20159700      -3.70923200       0.97631300
S        2.25719100      -2.44504400       0.40620300
O        1.16423400      -2.72828200       1.37060400
O        2.09333200      -1.07007200      -0.16024500
O        3.60266400      -2.70197200       0.90318000
O        2.05591700      -3.44808000      -0.82541000
H        1.14415400      -3.30939400      -1.18108800
S       -2.75191200       2.18828600       0.26243300
O       -1.74492200       2.11484100       1.36693200
O       -2.51604100       1.07972900      -0.71713700
O       -4.13434100       2.24593000       0.70515100
O       -2.45724500       3.54363900      -0.50728800
H       -1.49863900       3.55441900      -0.77137200
C        0.04722100       0.61157500      -3.08026300
N       -0.09991900       0.14003400      -1.68845600
H       -0.98847000       0.49165400      -1.27832600
H       -0.10402000      -0.89084000      -1.62082400
H        0.06200800       1.70126900      -3.07174000
H        0.97834100       0.22317100      -3.49361400
H       -0.79313400       0.24903100      -3.67173600
H        0.66303500       0.50660900      -1.09623800
C        0.58541700      -0.12640700       3.20488000
N        0.08940600       0.03518200       1.82366800
H        0.82562100       0.40675300       1.20067900
H       -0.24227000      -0.85516600       1.41861600
H        0.96451100       0.83196800       3.56002400
H       -0.23362100      -0.45872000       3.84214200
H        1.37161000      -0.88037800       3.20356500
H       -0.69770800       0.70450000       1.75850400
C       -5.47246900      -0.46608000      -1.05413600
N       -4.34733800      -0.94210700      -0.22160700
C       -4.65628700      -1.01474900       1.22587900
H       -3.99415000      -1.86375100      -0.54129700
H       -5.72547500       0.54724400      -0.73921100
H       -5.15747600      -0.45896800      -2.09745200
H       -6.32633400      -1.13317700      -0.92766100
H       -4.91490300      -0.01369100       1.57335200
H       -5.48561500      -1.70667700       1.37958400
H       -3.76432300      -1.37606600       1.73632900
H       -3.55069600      -0.28329400      -0.35438400
N        4.38059500       0.42448900      -0.38640200
C        4.47431400       1.59964700      -1.29023100
C        4.60788500       0.79972100       1.03298300
C        5.29315400      -0.66789800      -0.81829500
H        4.48990700      -0.09730200       1.64253300
H        5.61738600       1.20264100       1.13805600
H        3.86523500       1.54952200       1.30479500
H        4.15534500       1.29634300      -2.28824100
H        3.83519900       2.40104200      -0.91995300
H        5.51548800       1.92878300      -1.32114100
H        5.05748000      -0.92852300      -1.85075200
H        6.32342900      -0.31277300      -0.74860000
H        5.12740300      -1.53488400      -0.17791400
H        3.41202000       0.02852900      -0.41056700
65
4sa2ma1dma1tma-9
S        3.22111300      -2.28812400      -0.82242100
O        3.25633200      -1.86103100       0.62871800
O        2.75630700      -1.12885800      -1.63073800
O        4.42872000      -2.93160800      -1.28158100
O        2.06732200      -3.39740100      -0.90508600
H        1.23321000      -3.00339400      -0.54838900
S        0.64769000       3.50156000      -0.22306700
O       -0.77949800       3.42975800      -0.58668600
O        0.85375100       3.54172700       1.23339000
O        1.49567700       2.51202200      -0.91904200
O        1.20523400       4.89684200      -0.82380100
H        0.65838800       5.61835500      -0.48288400
S       -3.15746400       0.88029800      -0.88850500
O       -3.49984500       1.71577300       0.28191500
O       -2.08062000      -0.09968700      -0.53678800
O       -4.28265700       0.25334200      -1.57059300
O       -2.49091200       1.85740400      -1.97886600
H       -1.88641600       2.48696700      -1.51992400
S        0.07231500      -1.41436800       1.42254400
O       -0.07350400      -2.13831100       0.12449400
O        0.55142500      -0.02403200       1.20118500
O       -1.13077300      -1.49421500       2.25338200
O        1.20638300      -2.16793600       2.24051900
H        2.04674000      -2.15573500       1.69541500
C       -0.05884200      -0.05688500      -3.33116200
N        0.33936300       0.12296800      -1.92021600
H        0.64402100       1.08658600      -1.72161200
H       -0.45518900      -0.08063000      -1.28810200
H        0.78151100       0.19953100      -3.97561200
H       -0.32784500      -1.10145500      -3.48708900
H       -0.91599200       0.58281200      -3.54068900
H        1.15029800      -0.48353300      -1.68287000
C       -1.78244700       1.51377300       3.39382100
N       -1.35837500       1.83699700       2.01640500
H       -2.17358900       1.88633200       1.36571700
H       -0.82277400       2.71031300       1.95620500
H       -2.23712300       0.52453900       3.38743300
H       -0.90859800       1.50009400       4.04515500
H       -2.49560700       2.26237600       3.73847100
H       -0.71901800       1.10185000       1.65274600
C        4.43120400       1.28090700      -0.13924700
N        3.24005400       0.90653400       0.65471100
C        3.27051400       1.36411000       2.06055700
H        2.40957300       1.30323500       0.19167000
H        5.31665700       0.84627100       0.32635700
H        4.30720900       0.87583700      -1.14320500
H        4.50956300       2.36804700      -0.17349600
H        4.15956800       0.95608500       2.54348300
H        3.28328300       2.45413400       2.08201100
H        2.37012300       0.99602700       2.54997400
H        3.14231300      -0.13204900       0.63688300
N       -3.02214800      -2.68517500       0.06980900
C       -3.42606900      -2.90736400      -1.34357800
C       -2.44367700      -3.90969300       0.68006500
C       -4.14173800      -2.14826900       0.88801400
H       -2.12346500      -3.67008700       1.69312600
H       -3.20917600      -4.68856000       0.68249600
H       -1.57869600      -4.21713900       0.09526800
H       -3.80014100      -1.96533300      -1.74797900
H       -2.54971000      -3.24015500      -1.90057800
H       -4.20160900      -3.67567800      -1.37055100
H       -4.56331500      -1.28101700       0.38026000
H       -4.89958800      -2.92682100       0.99756300
H       -3.73762000      -1.86269300       1.85889900
H       -2.29812700      -1.94402000       0.04789500
65
4sa2ma1dma1tma-11
S        3.10144600      -2.33645000      -0.89103100
O        3.17997400      -2.47961700       0.59036900
O        2.74073800      -0.91315700      -1.21959100
O        4.22983000      -2.85370200      -1.62798200
O        1.82915300      -3.19832800      -1.36555800
H        1.04714800      -2.90494800      -0.83687900
S        0.82489100       3.45886100      -0.26219000
O       -0.64830300       3.55106500      -0.31948700
O        1.28961500       3.11629300       1.10352800
O        1.44597300       2.64169200      -1.30878700
O        1.37983700       4.94313200      -0.58503700
H        0.86923300       5.58420200      -0.07155700
S       -3.08574000       1.08700200      -0.81270600
O       -3.38851400       1.88729200       0.39335800
O       -2.07501600       0.02806900      -0.49555100
O       -4.23835500       0.56040500      -1.53237600
O       -2.34548700       2.07002200      -1.84854300
H       -1.75917000       2.68552100      -1.34692500
S        0.00886700      -1.50373800       1.37959100
O       -0.20851200      -2.17578500       0.06415900
O        0.56743900      -0.13756600       1.18899700
O       -1.18450200      -1.52867700       2.22903900
O        1.10531400      -2.34565200       2.15206000
H        1.92481800      -2.44066300       1.57032200
C       -0.14459100      -0.30115700      -3.27186300
N        0.30771100       0.12813400      -1.93451000
H       -0.45799300       0.01026400      -1.24697700
H        1.14397000      -0.40460900      -1.62164000
H       -1.02068800       0.28366200      -3.55240300
H        0.66044000      -0.15095800      -3.99067700
H       -0.39817400      -1.36021600      -3.22913000
H        0.58986700       1.11803700      -1.91367300
C       -1.56500700       1.48591200       3.46463600
N       -1.19637700       1.80765900       2.07110100
H       -2.03762300       1.90839300       1.45993300
H       -0.63261400       2.65686900       1.99120400
H       -2.05559300       0.51383600       3.46958700
H       -0.66146700       1.43141000       4.07191300
H       -2.23218600       2.25606100       3.85152100
H       -0.60505800       1.05011900       1.66952900
C        4.27566800       1.61397000       0.06099300
N        3.17762700       0.93182100       0.78171100
C        3.58192100       0.33038500       2.07224200
H        2.40810600       1.60193400       0.93807600
H        5.04967400       0.88149400      -0.16985000
H        3.86913500       2.03178200      -0.85921100
H        4.67698500       2.41027500       0.68955600
H        4.31434200      -0.45361700       1.88026800
H        4.00383700       1.10965100       2.70925800
H        2.69846500      -0.10686600       2.53462200
H        2.81387800       0.18490300       0.15335200
N       -3.17582700      -2.51259000       0.04136900
C       -3.61599800      -2.66134500      -1.37067300
C       -2.68362000      -3.79502500       0.60701500
C       -4.23853000      -1.91691400       0.89381200
H       -2.33229000      -3.60995100       1.62122800
H       -3.50590100      -4.51366800       0.59920500
H       -1.85205700      -4.14899200       0.00045700
H       -3.91992900      -1.68168100      -1.74333900
H       -2.77690100      -3.04654400      -1.95082300
H       -4.45037200      -3.36495600      -1.40632400
H       -4.60200600      -1.00633800       0.41843400
H       -5.05109500      -2.63932600       0.99555200
H       -3.79811400      -1.69010300       1.86440800
H       -2.39658200      -1.82981200       0.02890800
