55
3sa1dma2eda-300102_79_7
S        0.20382800      -0.91802300       1.89838900
O        0.38899600      -1.98876300       0.88498800
O        1.33814000      -0.84510400       2.82956700
O       -0.08011600       0.38004500       1.21939000
O       -1.06145100      -1.26550400       2.76749800
H       -1.86277500      -1.30451800       2.17012800
H        1.21627600       1.29456600       0.76520400
S        1.99404400       1.49333400      -1.23844300
O        1.92886400       1.84759300       0.34060700
O        2.49117400       0.09077200      -1.30405200
O        0.57415900       1.53549700      -1.71010800
O        2.86000400       2.50377900      -1.80568700
H        2.97365500      -0.69476000       0.08757000
S       -3.58869000      -0.52580900       0.03950000
O       -3.07368300      -1.45445600       1.06691600
O       -3.66775700       0.87251100       0.50704000
O       -2.96860500      -0.67229000      -1.28420100
O       -5.11426800      -0.99861400      -0.23329800
H       -5.57857500      -1.01946800       0.61464000
N        3.38968800      -1.20211000       0.90474300
H        2.69173700      -1.15704400       1.67340000
C        3.60559700      -2.61164300       0.50657000
H        2.65809500      -3.01913700       0.14993300
H        4.34468700      -2.63976400      -0.29551300
H        3.96372500      -3.17797200       1.36759800
C        4.60762300      -0.47356800       1.31858800
H        5.31325200      -0.45970800       0.48708400
H        4.32484700       0.54765400       1.57457000
H        5.05156300      -0.96935000       2.18301500
C       -1.63960300       3.84850200      -0.41559700
N       -1.45761500       2.45055900       0.03085800
C       -0.29355300       4.56615900      -0.27228600
N        0.23468000       4.33768300       1.07037700
H       -2.33693000       1.90150400       0.13426300
H       -0.98985400       2.46962300       0.94591800
H       -1.99236100       3.84454000      -1.44862200
H       -2.40153700       4.30308000       0.22212800
H       -0.43479400       5.62826700      -0.49933900
H        0.40050000       4.16614400      -1.01753900
H        0.20618200       5.16159200       1.65527400
H        1.17881500       3.97029800       1.04842200
H       -0.81007300       1.95640200      -0.60798300
C       -0.13420400      -3.52215100      -2.42149800
N        0.61897100      -4.02426700      -1.27401600
C        0.22128300      -2.07506400      -2.73303400
N       -0.27203900      -1.15542200      -1.68059500
H        0.55450300      -5.03490600      -1.23010400
H        0.24885900      -3.66556500      -0.39661600
H        0.14276500      -4.11471800      -3.29865900
H       -1.22659800      -3.60730900      -2.30639900
H       -0.22826100      -1.76387000      -3.67887800
H        1.30432300      -1.94900200      -2.78922600
H       -1.30632400      -1.12751500      -1.61067100
H        0.04810600      -0.18228000      -1.83386100
H        0.07696500      -1.43104700      -0.74217300
55
3sa1dma2eda-300102_40_15
S        0.85932600       2.04276600      -1.37475900
O        1.54450400       0.88690000      -2.05028300
O        1.25982000       3.34849800      -1.85229800
O       -0.60530800       1.81827000      -1.27365300
O        1.39872000       1.95366700       0.14865800
H        1.25846400       0.99850900       0.43984000
H       -1.85428400       0.78246600      -1.77989100
S        1.53956300      -1.32641400       1.79318400
O        0.94369600      -0.51606100       0.61517800
O        0.82873700      -0.90219700       3.01772700
O        1.29405100      -2.77244000       1.46018300
O        2.99895700      -1.02905000       1.81281100
S       -3.23742600      -0.53578900      -0.70113000
O       -2.37217600      -0.03496300      -1.99879200
O       -3.72255200      -1.84416700      -1.13080000
O       -2.17845000      -0.69086000       0.36857100
O       -4.19438200       0.50709900      -0.38035600
C        4.54901900       1.41627200      -0.21333900
N        3.79206500       0.17063900      -0.47108000
C        4.56633600      -0.87973200      -1.16052800
H        3.44892000      -0.23389200       0.44480200
H        4.90531100       1.82369800      -1.16074200
H        3.87335200       2.12823700       0.25935800
H        5.38945700       1.19175600       0.44473000
H        4.87604600      -0.52145700      -2.14358600
H        5.43995500      -1.13422400      -0.55927100
H        3.93729200      -1.76449300      -1.26330700
H        2.95327000       0.40635800      -1.04142600
C       -2.09267700       1.76637200       2.67229600
N       -0.92079800       1.14084400       2.01925100
C       -2.66985300       2.78470300       1.68147100
N       -1.58877800       3.63299600       1.18712200
H       -0.33406000       0.53290900       2.61936700
H       -0.35371900       1.90666700       1.62315100
H       -2.81328600       0.98522100       2.92108500
H       -1.74626400       2.25356200       3.58694100
H       -3.45466700       3.35781100       2.18512800
H       -3.14857800       2.24182100       0.86033100
H       -1.67245600       4.60012200       1.46632000
H       -1.47928200       3.58115300       0.18064700
H       -1.24265600       0.54148100       1.23596300
C       -0.98450500      -3.58763300      -0.95113700
C        0.17109600      -2.89650600      -1.66681000
N        0.02747600      -1.42586100      -1.65511100
N       -1.10575300      -3.15335500       0.46656900
H       -1.70509800      -3.79082300       0.98620200
H       -1.56138200      -2.20019600       0.50852800
H       -1.93979800      -3.37543200      -1.44008200
H       -0.79913400      -4.66329700      -0.97129000
H        0.19602500      -3.24923200      -2.69976000
H        1.11952300      -3.13550600      -1.17871700
H        0.71174500      -0.91209600      -2.22636400
H        0.23909600      -1.05445600      -0.68078900
H       -0.14917800      -3.07363600       0.95466100
H       -0.90894300      -1.08729300      -1.94307200
55
3sa1dma2eda-300102_125_15
S       -2.54466600      -1.60588800      -0.22668100
O       -1.58868900      -2.72213400      -0.03105600
O       -3.91193000      -1.97072300      -0.55690400
O       -2.46038300      -0.64338000       0.91953700
O       -2.01997900      -0.78659200      -1.50889400
H       -1.02942600      -0.80645600      -1.53791600
H       -1.02442600      -0.76957100       1.86705200
S        0.48547400       2.44679500       0.08365700
O       -0.15828500       1.30182500       0.76130900
O        1.65000800       2.99133200       0.81439800
O        1.13678500       1.83274300      -1.26111700
O       -0.48746500       3.46684900      -0.34202300
H       -2.40874700       1.12202400       0.21755200
H        0.86575700       0.88621000      -1.37505500
S        1.64025800      -1.68586600      -0.90643600
O        0.65089900      -0.77804000      -1.56717300
O        2.86572200      -1.89064000      -1.65480400
O        1.90325800      -1.21168600       0.49521500
O        0.92342400      -3.09225200      -0.78615300
H       -0.04125700      -2.97447200      -0.56293100
H        2.97966200       0.18383300       0.55581000
N       -0.14006400      -1.02901700       2.35996100
H        0.59211200      -0.98048300       1.62115400
C        0.16611300      -0.05152300       3.42504900
H        0.24188300       0.93347500       2.96720700
H       -0.63557800      -0.06832500       4.16535200
H        1.10855400      -0.32853700       3.90164500
C       -0.24112000      -2.42496700       2.84000300
H       -0.99848800      -2.47783400       3.62375700
H       -0.53757900      -3.05497700       2.00280400
H        0.72771300      -2.73854300       3.23146600
C        4.25842900       1.12454100      -0.80400000
C        5.37000900       0.08253600      -0.82375900
N        6.20665800       0.25432900       0.36802700
N        3.56608000       1.04440900       0.50858700
H        2.93257700       1.86158400       0.67877100
H        4.29888200       0.97761500       1.22388200
H        3.52571100       0.95591700      -1.59237300
H        4.65088700       2.13997500      -0.90366000
H        5.91760700       0.16841000      -1.77005900
H        4.91351600      -0.91111300      -0.80350400
H        6.92113300       0.96055900       0.22680700
H        6.67652000      -0.60700300       0.61867400
C       -4.10118300       2.34567200       0.19832400
C       -5.12330600       1.22116400      -0.00510700
N       -5.07207000       0.77295500      -1.39218300
N       -2.80574500       1.88947600      -0.35356700
H       -2.07679400       2.62679800      -0.42414700
H       -3.00341400       1.47770600      -1.27748600
H       -3.96531800       2.59568900       1.25227200
H       -4.39266800       3.24673000      -0.34715900
H       -6.11138400       1.58669700       0.29676000
H       -4.86417700       0.38589000       0.65168500
H       -5.86582100       1.07630900      -1.93969200
H       -4.97907900      -0.23677700      -1.45482500
