22
1nta1ma1dma-11
N       -1.41553400      -0.56930800      -0.01680500
C       -2.42986300      -0.59844000      -1.08180300
C       -1.65339500      -1.51586300       1.08701100
H       -0.43761200      -0.76273500      -0.42848000
H       -3.41218500      -0.35614500      -0.67007300
H       -2.16035600       0.13461800      -1.84315600
H       -2.45786600      -1.59126200      -1.53471900
H       -2.60116600      -1.28631900       1.57947600
H       -1.68208900      -2.53243800       0.68994200
H       -0.82482300      -1.42376000       1.78967700
H       -1.31730600       0.41029300       0.36651900
N       -0.62347200       1.99574100       0.76670500
H       -1.04043400       2.73264900       1.32521000
C       -0.11776100       2.52498500      -0.50742100
H        0.63863600       3.30913300      -0.38795600
H        0.33521800       1.70609200      -1.07397600
H       -0.94889400       2.92951800      -1.09194900
H        0.15652700       1.59983900       1.29129900
N        1.80714500      -0.55590900      -0.06426400
O        1.31027300      -0.21772500       1.04101400
O        3.01003100      -0.53567300      -0.27194200
O        1.00238300      -0.92500700      -0.99381900
22
1nta1ma1dma-12
N        0.82422700       1.17328200      -0.02993600
C        1.06019000       1.24849600       1.42333200
C        1.36517500       2.30518200      -0.79772100
H        1.20988500       0.25690700      -0.38674300
H        0.61479600       2.16407300       1.81720500
H        0.57706500       0.38502700       1.88204100
H        2.13341000       1.24140700       1.62809200
H        0.88633500       3.22985800      -0.47013800
H        2.44473100       2.37980100      -0.64778800
H        1.15257700       2.14789000      -1.85572800
H       -0.24069000       1.08681800      -0.18634600
N        1.47047600      -1.46319100      -0.78241500
H        0.48514700      -1.66076800      -0.59408700
C        2.31132600      -2.21288200       0.15620300
H        2.19208200      -3.30027600       0.07855400
H        3.36360100      -1.96693000      -0.01052400
H        2.05187500      -1.92003100       1.17692300
H        1.66397300      -1.74574600      -1.73768100
N       -2.05229900      -0.28567800       0.01199700
O       -1.76744700       0.90030200      -0.38099100
O       -1.12130700      -0.98224600       0.49880500
O       -3.19271600      -0.70726800      -0.09058700
22
1nta1ma1dma-13
N       -0.70029200       1.03823300       0.02018900
C       -0.37820600       1.98471300       1.10316200
C       -0.58724400       1.61818200      -1.33011600
H       -0.00977700       0.19839000       0.08700700
H       -1.05101600       2.84484400       1.06393400
H       -0.48823600       1.47268200       2.06001600
H        0.65936400       2.29940500       0.98486200
H       -1.25417000       2.47826400      -1.42689300
H        0.45036800       1.91307500      -1.49124600
H       -0.85913600       0.85578600      -2.06146700
H       -1.64595400       0.61812700       0.15989300
N       -2.98945800      -0.66298700       0.35655900
H       -3.14072800      -0.84750600       1.34389600
C       -2.36805100      -1.83567700      -0.28447300
H       -2.95117400      -2.75684600      -0.17228900
H       -2.24394100      -1.63452100      -1.35153100
H       -1.37145200      -1.99460400       0.13446700
H       -3.90483800      -0.48231700      -0.04338900
N        2.08394000      -0.58828100       0.03481000
O        2.23473400       0.63757200      -0.16182000
O        0.87914300      -1.02308500       0.19634100
O        3.01767000      -1.37409300       0.07802900
