34
1sa1nta1dma1eda-86
S       -0.08007700      -1.55057500      -0.49753300
O       -0.11871500      -0.63650100       0.69341800
O       -0.41453100      -0.59246900      -1.76078900
O        1.30456800      -2.03544000      -0.68788700
O       -1.13883500      -2.54208400      -0.52011500
H        2.29460500      -0.88296600       0.08780700
H       -1.28385800       0.47799900       0.78896400
N        0.90981800       2.10163300      -0.47670400
O       -0.14971500       2.70465200      -0.73202300
O        1.43167700       2.18780200       0.65998600
O        1.45415900       1.37822000      -1.34950900
H        0.26693200       0.11831000      -1.81675700
N        2.85658800      -0.23348100       0.68722000
C        4.16907800      -0.00032600       0.05478400
C        2.90740400      -0.80497400       2.04729500
H        2.32914700       0.66595200       0.70691500
H        4.68306700      -0.95457300      -0.07046600
H        3.99587200       0.46382200      -0.91588400
H        4.76316700       0.66494300       0.68362000
H        3.42493900      -1.76486800       2.01404600
H        3.43366500      -0.11787400       2.71207800
H        1.88060800      -0.95080500       2.38277200
H       -3.63256000       1.72093500      -0.54825800
H       -2.42134300       0.62402600      -1.26646500
H       -4.51724600      -0.61390200      -0.61594200
H       -3.08781100      -1.19429900       0.23306100
H       -5.24688200       0.41269300       1.37551400
H       -4.45686600      -0.86807800       2.01366200
H       -1.47673900       2.09358200       0.43003400
H       -2.51187000       1.34327300       1.57490500
C       -2.98231500       0.86175100      -0.36159200
C       -3.76988400      -0.34329600       0.13949000
N       -2.00597600       1.24676100       0.69042700
N       -4.33902500      -0.03224700       1.45426100
34
1sa1nta1dma1eda-119
S       -0.19900800       1.58840500      -0.23582700
O       -0.76188600       0.81480000      -1.54320000
O        1.02527300       2.28884400      -0.59908500
O       -1.35522300       2.42238400       0.14513700
O        0.02336600       0.49705000       0.76856000
H       -2.51765400       1.12995800       0.30903200
H        1.41745200      -0.36515700       0.73333100
N       -0.43855400      -2.27172700      -0.42642200
O       -1.67012500      -2.12358200      -0.28083000
O        0.21178000      -2.99550700       0.34932000
O        0.16448400      -1.67658800      -1.36135700
H       -0.40005000      -0.10930000      -1.58382000
N       -2.99357900       0.20633400       0.43625700
C       -4.24506400       0.16742300      -0.34540600
C       -3.14731300      -0.04848000       1.88425600
H       -2.34690400      -0.51336000       0.05599900
H       -4.92882000       0.93151500       0.02735500
H       -4.00292400       0.36340900      -1.38969900
H       -4.69749700      -0.82044300      -0.24873600
H       -3.82203300       0.69557900       2.31030400
H       -3.54576300      -1.05303200       2.03079100
H       -2.16023200       0.03356800       2.33879400
H        3.74056300      -1.42471100      -0.78973500
H        2.42041700      -0.39550300      -1.38284900
H        4.50725100       0.94814600      -0.92075300
H        3.13116000       1.45257300       0.06151600
H        5.45655100      -0.06828000       0.99028500
H        4.69644600       1.19521300       1.69677200
H        1.78409300      -1.95873000       0.45912600
H        2.81023700      -1.02013200       1.44563500
C        3.07120100      -0.59899600      -0.53267700
C        3.84640700       0.64089000      -0.10112500
N        2.22452000      -1.03412500       0.60439200
N        4.54891300       0.35380100       1.15308900
34
1sa1nta1dma1eda-108
S       -0.15824400      -1.64300900       0.21826000
O       -0.13692500      -0.97906000      -1.27350500
O       -1.29969500      -2.54341200       0.22044600
O        1.16540600      -2.28477000       0.37429100
O       -0.28713600      -0.45976300       1.11513600
H        2.29455000      -1.07896400       0.21320800
H       -1.48912800       0.60551500       0.77909200
N        0.71383700       2.33347600      -0.01152700
O        1.90050900       2.17740500       0.35190400
O       -0.03124000       3.11942200       0.59577800
O        0.27349500       1.69173500      -1.00468700
H        0.09298100      -0.02527900      -1.18378900
N        2.97701500      -0.31286300      -0.02334400
C        3.40158000      -0.49610400      -1.42704500
C        4.07960700      -0.32078300       0.95951300
H        2.47279600       0.60151600       0.06010300
H        3.92357000      -1.44918500      -1.52290400
H        2.51103400      -0.50567900      -2.05545700
H        4.05645200       0.32636700      -1.71850600
H        4.58906300      -1.28469800       0.92125800
H        4.77879800       0.48371600       0.72658500
H        3.65683200      -0.16515400       1.95174300
H       -3.76332000       1.93705500      -0.63094300
H       -2.24598300       1.46830800      -1.43556400
H       -4.22696700      -0.24199400      -1.55559500
H       -2.64518700      -0.86890000      -1.10707700
H       -4.95875700      -0.94359000       0.47332100
H       -3.45813100      -1.52339700       0.80926500
H       -1.71253600       2.24893300       0.71179700
H       -2.88690700       1.21714100       1.41364100
C       -2.94613700       1.21086300      -0.63952100
C       -3.46275800      -0.22583800      -0.77201300
N       -2.22264500       1.35345200       0.65003900
N       -3.97768200      -0.70190000       0.51299600
