45
1sa1msa1nta2eda-1
H        1.91207100      -3.94552300      -1.25972300
H        1.51066500      -4.42766800       0.39857900
H       -0.56004700      -3.95626400      -0.63690100
H       -0.26754000      -2.63265600       0.48540800
H       -0.22071600      -2.57197400      -2.43949600
H       -1.03137900      -1.58456000      -1.34673700
H        3.36686600      -2.97462800       0.41453500
H        2.58161500      -1.79299400      -0.48268000
C        1.51861400      -3.59050200      -0.30258800
C        0.08202700      -3.09574700      -0.43817000
N        2.45411100      -2.56403400       0.22864100
N       -0.13000800      -2.11324200      -1.53452900
H       -0.46668400       4.20759000       0.29526800
H       -0.49746500       2.90784900       1.52991200
H        1.65815300       4.25676400       1.56250500
H        1.89437200       2.53512600       1.28937400
H        2.63423900       4.61562700      -0.45679500
H        2.77434900       2.99066000      -0.72890200
H       -1.16348600       2.14470600      -0.76546300
H        0.41716800       2.51848900      -1.23822300
C       -0.00428800       3.27550200       0.62890700
C        1.50017000       3.45173300       0.83829100
N       -0.18772000       2.27118800      -0.44397100
N        2.14262200       3.73334500      -0.44406200
H        0.12477000       1.33478300      -0.11229800
N        2.35039300       0.30799700      -1.79077600
O        1.45625900       0.93231800      -2.37163100
O        3.23231600       0.84944700      -1.12488900
O        2.34204200      -0.97932200      -1.88651800
H        0.66793500      -1.44681700      -1.62506200
S       -3.05805400       0.13170100      -0.49001600
O       -2.54430000      -1.16623300      -1.02414600
O       -2.65814100       1.29342900      -1.31348500
O       -2.74473400       0.31369200       0.95156200
H       -1.66265300      -0.60878300       1.76022500
C       -4.83168800       0.01164600      -0.60490500
H       -5.09534100      -0.11621700      -1.65470100
H       -5.15409100      -0.84598800      -0.01444000
H       -5.25519100       0.93439500      -0.20820100
S        0.46750100      -0.42858400       1.95569000
O       -0.93783700      -1.16425900       2.16799000
O        0.58419500      -0.23211700       0.47458700
O        0.48308700       0.81626200       2.70519600
O        1.43727100      -1.46624600       2.39754600
H        2.08518000      -2.13012300       1.13702600
45
1sa1msa1nta2eda-2
H       -2.77242900      -2.31556200      -0.03999300
H       -1.68991900      -3.54104500      -0.73411900
H       -1.05593400      -3.12855800       1.55379800
H        0.26001400      -2.59962300       0.49673400
H       -0.12521900      -1.08095000       2.26087600
H       -0.33948800      -0.37775000       0.79859000
H       -2.18988100      -1.71709500      -2.20775100
H       -1.53694900      -0.59952200      -1.19489400
C       -1.74738300      -2.51759400      -0.35818800
C       -0.76799900      -2.39166900       0.80162700
N       -1.46422600      -1.60178200      -1.50038700
N       -0.76904300      -1.05574100       1.44977900
H        2.52752600       4.08138900      -0.01209000
H        3.07471700       3.32311800      -1.52971900
H        0.66734600       3.91269400      -1.69601200
H        0.87279200       2.15762200      -1.72160700
H       -0.23250000       3.71110700       0.46596100
H       -0.64077600       2.20459300      -0.07362000
H        3.69830600       2.11639500       0.60289700
H        2.09846900       1.75360800       0.79334200
C        2.41271800       3.21432400      -0.66779500
C        0.95247000       3.04409100      -1.08654200
N        2.82457700       2.00848100       0.09190000
N        0.13324800       2.84231100       0.09650600
N        2.20344300      -0.34464900       2.22204000
O        1.66314000      -1.38360400       2.65899200
O        1.67789500       0.76920600       2.41352300
O        3.26666600      -0.42954700       1.54862200
H        2.91093300      -1.64210900       0.33432000
S        1.83853000      -0.93803300      -1.37963700
O        2.45749000      -2.07668100      -0.43457500
O        0.88296900      -0.16480100      -0.54042800
O        2.94227000      -0.07515700      -1.83062000
O        1.14269700      -1.71095000      -2.42276000
H        2.93825300       1.19880800      -0.55139600
H       -0.51830200      -1.74920000      -1.92577500
S       -3.48639200       0.47958700       0.09113900
O       -4.20657000      -0.41424100      -0.83238600
O       -2.13138700       0.84539700      -0.45372300
O       -3.36026400      -0.05696100       1.47328000
H       -1.72353100      -0.71617800       1.69146500
C       -4.40026300       2.00258800       0.21513100
H       -5.38140800       1.76918600       0.62903700
H       -3.85502600       2.67559300       0.87694100
H       -4.49371800       2.42654900      -0.78469300
45
1sa1msa1nta2eda-3
H        3.68812500      -0.02167300      -2.50088600
H        4.39712500      -1.38124300      -1.60023400
H        2.24719800      -2.01199200      -2.61484600
H        2.18267300      -2.14309500      -0.84617500
H        0.19760400      -1.08124100      -1.89884200
H        0.92767700      -0.23236300      -0.65286600
H        4.62210500       0.51162900      -0.25963200
H        3.07971000       1.05031700      -0.56362200
C        3.57451900      -0.66416100      -1.62470300
C        2.26579500      -1.44512100      -1.68195600
N        3.66607300       0.19857400      -0.41583600
N        1.07493000      -0.57122500      -1.63391200
H       -2.67563700       2.40197600       1.99836000
H       -1.92502800       3.57976000       0.88503500
H       -4.29688300       3.50415100       0.42407900
H       -3.45323700       2.76355200      -0.93716000
H       -5.44961000       1.53066700       0.00223600
H       -4.10968500       0.58914200       0.01590300
H       -0.65270800       1.47353000       1.03771100
H       -1.92220100       0.63764000       0.40384000
C       -2.44385400       2.62151900       0.95464200
C       -3.71943500       2.62439700       0.12434800
N       -1.50181200       1.58595200       0.46379100
N       -4.52093200       1.43853000       0.39536800
H       -1.13890100       1.82692000      -0.47928400
N        1.06019500       2.56819900      -1.27567500
O        0.05336000       2.02941400      -1.82348600
O        0.92958300       3.45108400      -0.43920800
O        2.20499300       2.13823200      -1.61591600
H        1.14112900       0.27846800      -2.20908800
S       -1.74558200      -2.07704900      -0.60252000
O       -1.36153600      -1.76640000      -2.00583700
O       -2.52330500      -0.99121900       0.04355200
O       -0.54881700      -2.48529700       0.18742600
H       -0.03501100      -1.86092700       1.61666700
C       -2.82552200      -3.49035300      -0.66154800
H       -3.70141700      -3.22263000      -1.25272900
H       -2.28224200      -4.31438200      -1.12371300
H       -3.10886500      -3.73645000       0.36187100
S        1.44365400      -0.37554700       2.08519200
O        0.31619700      -1.42899000       2.44399900
O        0.90678100       0.43378900       0.93060900
O        1.67997300       0.39241500       3.28556600
O        2.62077800      -1.14713900       1.56958200
H        3.31666600      -0.32522300       0.45947400
