1sa_5w.log
 OpenBabel02281909513D
Gaussian users/kemi/kmacke/programs/G09D/g09/g09 # opt freq 6-31++g(d,p) wb97xd
 22 15  0  0  0  0  0  0  0  0999 V2000
    1.3876   -0.3232   -0.2365 S   0  0  0  0  0  0  0  0  0  0  0  0
    2.1177    0.9451   -0.3199 O   0  0  0  0  0  0  0  0  0  0  0  0
    0.5077   -0.5707   -1.4109 O   0  0  0  0  0  0  0  0  0  0  0  0
    0.7109   -0.5482    1.0512 O   0  0  0  0  0  0  0  0  0  0  0  0
    2.4829   -1.5138   -0.2869 O   0  0  0  0  0  0  0  0  0  0  0  0
    3.0121   -1.4123   -1.0903 H   0  0  0  0  0  0  0  0  0  0  0  0
   -1.7909    0.5015   -1.4144 O   0  0  0  0  0  0  0  0  0  0  0  0
   -2.3975   -0.1468   -0.9042 H   0  0  0  0  0  0  0  0  0  0  0  0
   -0.8608    0.0844   -1.4728 H   0  0  0  0  0  0  0  0  0  0  0  0
   -1.7206    1.3859   -0.9050 H   0  0  0  0  0  0  0  0  0  0  0  0
   -3.1575   -1.1896   -0.1170 O   0  0  0  0  0  0  0  0  0  0  0  0
   -3.8976   -0.9266    0.4355 H   0  0  0  0  0  0  0  0  0  0  0  0
   -2.5239   -1.7025    0.4518 H   0  0  0  0  0  0  0  0  0  0  0  0
   -1.5932    2.6300   -0.0577 O   0  0  0  0  0  0  0  0  0  0  0  0
   -0.7959    2.6289    0.5404 H   0  0  0  0  0  0  0  0  0  0  0  0
   -1.6473    3.4960   -0.4693 H   0  0  0  0  0  0  0  0  0  0  0  0
    0.5714    2.4697    1.4510 O   0  0  0  0  0  0  0  0  0  0  0  0
    1.2825    2.1803    0.8494 H   0  0  0  0  0  0  0  0  0  0  0  0
    0.4722    1.7179    2.0475 H   0  0  0  0  0  0  0  0  0  0  0  0
   -1.3013   -2.3642    1.3411 O   0  0  0  0  0  0  0  0  0  0  0  0
   -0.9850   -3.2431    1.1178 H   0  0  0  0  0  0  0  0  0  0  0  0
   -0.5232   -1.7688    1.2908 H   0  0  0  0  0  0  0  0  0  0  0  0
  1  4  1  0  0  0  0
  2  1  2  0  0  0  0
  3  1  2  0  0  0  0
  5  1  1  0  0  0  0
  6  5  1  0  0  0  0
  7 10  1  0  0  0  0
  9  7  1  0  0  0  0
 11 12  1  0  0  0  0
 11 13  1  0  0  0  0
 14 15  1  0  0  0  0
 16 14  1  0  0  0  0
 17 19  1  0  0  0  0
 18 17  1  0  0  0  0
 21 20  1  0  0  0  0
 22 20  1  0  0  0  0
M  RAD  2   4   2   8   2
M  END
$$$$
