70
4sa3dma1eda-38
S        4.18785300       0.45739000      -0.25000900
O        2.97121600      -0.27994400       0.20501100
O        5.25535200       0.48029200       0.73394900
O        3.65479700       1.96339500      -0.49648400
O        4.55550600       0.00247900      -1.61469700
H        3.13146300       2.23770500       0.28972400
H        2.14219100      -2.04053200      -1.14966600
S        0.39775400       2.43184200       1.04969500
O       -0.57856500       3.18852200       1.85745300
O        0.42689600       2.91030300      -0.35495300
O        1.74081200       2.27540800       1.64635700
O       -0.11224900       0.91522600       0.99879900
H       -1.09673200       0.82496600       0.72838700
S       -0.15012100      -3.10652600       0.13340400
O       -1.05996400      -2.76696200       1.25659400
O        0.95892100      -2.09580600       0.06677100
O        0.31053700      -4.48186400       0.08379100
O       -0.99762000      -2.90004400      -1.21266300
H       -1.25935600      -1.93144700      -1.34242300
S       -2.73079900       0.34997200      -1.17465400
O       -3.94551100      -0.49038800      -1.34268700
O       -2.52142800       0.61059100       0.30895200
O       -1.52283000      -0.43259200      -1.67996700
O       -2.80433600       1.64830000      -1.89168400
C       -3.91783500       3.71057200       0.45081500
N       -2.54862200       3.68944700      -0.10183300
C       -2.12640700       4.93542700      -0.77428400
H       -1.87357400       3.48318500       0.66179800
H       -4.62558000       3.89787100      -0.35780900
H       -4.11416800       2.73233000       0.88984100
H       -3.99282700       4.49187500       1.20891500
H       -2.77365800       5.11403000      -1.63420000
H       -2.19613700       5.76696800      -0.07117100
H       -1.09261000       4.80551800      -1.09374900
H       -2.50312900       2.89649800      -0.78838700
C        2.91863300      -1.21043000       3.05653900
N        1.64841900      -0.68637900       2.50270300
C        0.49432500      -0.85185800       3.41453400
H        1.76497300       0.30624400       2.24633800
H        2.81897500      -2.28758600       3.19739500
H        3.72062700      -0.98949900       2.35477000
H        3.11149400      -0.72519700       4.01448400
H        0.34783100      -1.91539600       3.60334300
H        0.69960500      -0.31940700       4.34447600
H       -0.38642900      -0.44186200       2.92694200
H        1.44326300      -1.15411700       1.59882300
C       -4.38458500      -1.74995800       1.77714200
N       -3.68470400      -2.33819100       0.61787700
C       -4.13185100      -3.69256700       0.23594200
H       -3.80134300      -1.67966400      -0.19662400
H       -4.20555700      -2.36586100       2.66020500
H       -3.98905500      -0.74431400       1.92286500
H       -5.45382300      -1.70059000       1.56474500
H       -3.99075500      -4.37054600       1.07909100
H       -5.18421400      -3.65894200      -0.05028600
H       -3.52449400      -4.02682600      -0.60546400
H       -2.66454900      -2.38852100       0.83601200
C        1.59761500       0.15814000      -2.90946400
N        0.99006300       0.51390900      -1.61431600
C        1.71709500      -1.35040300      -3.08113600
N        2.64043700      -1.95000500      -2.07300300
H        0.93694100       1.53549300      -1.45440400
H        1.54600400       0.14687000      -0.81720900
H        0.95389400       0.54310500      -3.70275500
H        2.57819000       0.63515400      -2.97328900
H        2.11597800      -1.55662500      -4.07584500
H        0.74732400      -1.84392200      -2.97549300
H        3.48656000      -1.34137800      -1.93270000
H        2.92856900      -2.88561800      -2.35304500
H        0.00574500       0.15684600      -1.54546200
70
4sa3dma1eda-24
S        3.14714300      -0.68242500      -1.82623500
O        3.46373900       0.57374900      -1.05912400
O        1.84316000      -0.52224300      -2.52069900
O        4.24042100      -1.17248500      -2.63715700
O        2.91660500      -1.80070400      -0.69617200
H        2.12603300      -1.54518700      -0.11403600
S       -3.62711200      -1.65585000       0.21352400
O       -2.41458000      -1.02966400       0.75418500
O       -4.30423500      -0.86999800      -0.83135400
O       -3.40741000      -3.07113200      -0.15717700
O       -4.63330000      -1.66454000       1.49478400
H       -5.51396600      -1.92348300       1.19004000
S       -2.27510400       2.12813900      -1.36962300
O       -2.18166600       1.31500900      -2.60243100
O       -1.28506800       1.60778300      -0.35768300
O       -2.20261300       3.56929500      -1.53007800
O       -3.71132800       1.83168100      -0.71793700
H       -3.94413900       0.87788600      -0.83196000
S        1.14069500      -0.47497100       2.01657500
O        0.82737400      -1.21624600       0.69094400
O        1.44856200       0.93912400       1.65467800
O       -0.04211600      -0.59465300       2.90331400
O        2.34151700      -1.13901000       2.61248100
C       -3.25969400       1.24085800       2.81077900
N       -1.87157100       1.31687700       2.31633000
C       -1.16795200       2.56253900       2.68584100
H       -1.29466700       0.50005400       2.63401500
H       -3.84595900       2.03480500       2.34509200
H       -3.67607500       0.27087200       2.54694900
H       -3.25725900       1.36258000       3.89544300
H       -1.65784500       3.40746200       2.19856700
H       -1.19607900       2.68155500       3.77034800
H       -0.13477300       2.46590100       2.35198000
H       -1.85156800       1.24628000       1.28153000
C        4.74636800       1.19114400       2.24208200
N        4.44953100      -0.01476200       1.44727500
C        5.59307400      -0.92117400       1.22748100
H        3.65493400      -0.53297600       1.92449100
H        5.48764900       1.80174900       1.72264500
H        3.81226600       1.73989400       2.36757100
H        5.12895400       0.89287900       3.21958800
H        6.38716200      -0.38697200       0.70281600
H        5.95690400      -1.28315100       2.19052000
H        5.25040700      -1.75712600       0.61729200
H        4.07012300       0.26893100       0.51884900
C        1.16114600       2.67729000      -2.35628900
N        1.31511100       2.33381300      -0.92264500
C        1.60158000       3.50041100      -0.06334000
H        0.42914900       1.90611000      -0.58865400
H        2.07997700       3.15105800      -2.70476800
H        0.99820900       1.75651400      -2.91472600
H        0.31063000       3.35124900      -2.47110900
H        2.51465800       3.98591000      -0.41237300
H        0.76151500       4.19435200      -0.12620800
H        1.72656200       3.14136700       0.95733200
H        2.07031400       1.62571400      -0.82289000
C       -0.22733600      -3.27097400      -1.39062700
C       -1.00264300      -2.21738000      -2.16971000
N       -0.72058400      -0.84124800      -1.71041700
N       -0.60934500      -3.30195900       0.05164800
H       -0.21536200      -4.12173000       0.50944500
H       -1.64467000      -3.31737700       0.15649700
H       -0.44642300      -4.24793200      -1.82544600
H        0.84913400      -3.08926500      -1.44540300
H       -2.07763900      -2.39460500      -2.10754400
H       -0.69693700      -2.28060400      -3.21567500
H       -0.92345200      -0.69470100      -0.71106900
H       -1.30295700      -0.13392000      -2.21265200
H       -0.19121700      -2.44656100       0.53432000
H        0.28471300      -0.61887700      -1.87587600
70
4sa3dma1eda-16
S       -3.93370200      -0.69807700      -0.89166100
O       -3.31022100      -2.02801700      -0.77970200
O       -4.23653700      -0.09624800       0.43849400
O       -3.27167100       0.23473500      -1.80028200
O       -5.37876000      -0.94185900      -1.58414700
H       -5.87162400      -1.57863500      -1.04829500
S        0.75107500       2.77670500      -0.40854900
O       -0.43821500       2.32287800      -1.19154100
O        1.93803900       3.01822400      -1.24474200
O        0.41862100       3.82441600       0.55024300
O        1.20383000       1.45775700       0.43475500
H        0.40264800       0.94777800       0.71194000
S       -1.24540300      -0.76853200       2.13453000
O       -1.06163700       0.03112500       0.87109800
O       -1.12744600      -2.20624400       1.89031200
O       -0.41076200      -0.24891200       3.23054700
O       -2.73301400      -0.44136100       2.61304800
H       -3.34444000      -0.48885900       1.83601700
S        2.70489400      -1.77607800      -0.77798500
O        3.86612400      -1.18652200      -0.02515600
O        1.49150600      -1.70085800       0.17160300
O        2.38238700      -0.86712600      -1.94419600
O        2.90471100      -3.16527600      -1.20154400
C       -2.45376900       2.94202600       1.68459300
N       -2.75244400       2.39389500       0.34070800
C       -3.59116800       3.27192900      -0.50314800
H       -1.86199800       2.22819200      -0.17449100
H       -3.39388600       3.12745100       2.20635400
H       -1.86370100       2.21007300       2.23410000
H       -1.87629300       3.85851800       1.56700300
H       -4.54151600       3.45435400       0.00069600
H       -3.06048000       4.21077500      -0.66474700
H       -3.76052000       2.76429600      -1.45240000
H       -3.21447700       1.47628600       0.43283700
C        4.83868200       2.19400600      -0.07348000
N        4.10479600       1.32885600      -1.01506700
C        4.76499700       1.15625200      -2.32572600
H        3.96541200       0.37422500      -0.59082000
H        4.98653500       3.17656900      -0.52340000
H        4.24276200       2.30480100       0.83222200
H        5.80104600       1.73640200       0.16266800
H        4.83844800       2.12525300      -2.82243400
H        5.75916800       0.73381700      -2.17073500
H        4.15751300       0.46481200      -2.90887600
H        3.16807000       1.75137200      -1.16164200
C        2.67438500      -2.24529800       3.16174200
N        2.19248300      -0.95775000       2.62310100
C        3.14511400       0.16090900       2.75454900
H        1.96019900      -1.12918300       1.60450600
H        2.91432700      -2.13576200       4.22095600
H        1.88436300      -2.98488600       3.03125800
H        3.55748200      -2.54674000       2.59636800
H        3.35929700       0.33431200       3.81111200
H        4.05387600      -0.10048100       2.21139100
H        2.68654500       1.04583800       2.31122800
H        1.28236700      -0.70248700       3.05084500
C       -0.76852600      -1.44129400      -2.71258700
N       -0.22043300      -0.36081300      -1.86248300
C       -0.37812000      -2.82814200      -2.20971800
N       -0.63990100      -2.97546900      -0.75201100
H       -0.55363300      -0.40891800      -0.88525800
H       -0.50038300       0.58017800      -2.16172500
H       -1.84946300      -1.32027300      -2.74792100
H       -0.35921600      -1.31477800      -3.71648300
H        0.68467600      -3.03257800      -2.36230100
H       -0.97040200      -3.56701000      -2.75233700
H        0.13392700      -2.47750100      -0.21480400
H       -0.59469500      -3.95048300      -0.46264300
H       -1.56877900      -2.60961500      -0.47910700
H        0.84029600      -0.41844100      -1.84984300
