32
2fa1dma1eda-1
H        0.85367500       3.80059700       0.40629900
H        1.03963700       0.39588600       1.03193800
C        0.55284400       2.73631200       0.35409000
O        0.92928400       1.99529500       1.29610000
O       -0.13133300       2.39328500      -0.64740000
H       -1.67088400      -3.82037100       0.08691600
H       -1.72556500      -0.47414300      -0.49059000
C       -1.31668400      -2.77270200       0.13190400
O       -1.65392700      -2.02230400      -0.82236900
O       -0.61964800      -2.45137400       1.12706400
N       -1.99119000       0.53676800      -0.26967000
C       -2.37571500       0.62145200       1.15198000
C       -3.06336100       0.93619700      -1.19988900
H       -1.16214600       1.18242000      -0.42931000
H       -3.21365800      -0.05150700       1.34288800
H       -1.52651700       0.32212600       1.76555600
H       -2.65175900       1.64993300       1.39254700
H       -3.92981900       0.28800800      -1.05670400
H       -3.33311500       1.97832300      -1.01904900
H       -2.69556300       0.82790700      -2.22027200
H        1.46835500      -1.61570100      -1.10284400
H        0.81500900       0.02870300      -1.24082300
H        3.18472400      -0.02543300      -2.00871700
H        2.97427600       1.00447700      -0.58679200
H        4.16503200      -1.67102600      -0.58213900
H        4.75053900      -0.28386400       0.06181800
H        0.44133300      -1.26218700       0.93143000
H        2.08615400      -0.92459700       1.20250600
C        1.55349500      -0.59119400      -0.72988800
C        2.95709100      -0.03283200      -0.93473900
N        1.24439600      -0.59783700       0.71749300
N        3.90240300      -0.80352500      -0.12676300
32
2fa1dma1eda-2
H       -0.91701000       3.61947000      -0.94072300
H       -1.25832800       0.20936700      -1.03650300
C       -0.73544300       2.54009000      -0.77189700
O       -1.35375700       1.74120600      -1.51601800
O        0.06372900       2.24139800       0.15655600
H        2.14869100      -3.54011000      -0.95569100
H        2.27627900      -0.25180700      -0.26348000
C        1.84471400      -2.50650200      -0.70129200
O        2.67224100      -1.59643700      -0.95843800
O        0.71029400      -2.36266000      -0.17376500
N        2.14132800       0.59939800       0.38013700
C        3.24959600       1.54777100       0.16973800
C        2.04502100       0.08970400       1.76038800
H        1.24367600       1.10294700       0.15949400
H        4.19920100       1.04385300       0.35938400
H        3.22161500       1.89204600      -0.86422700
H        3.13171600       2.40227500       0.83857600
H        2.99938700      -0.35452800       2.04998000
H        1.78767700       0.90724000       2.43675900
H        1.27463900      -0.68267000       1.78268200
H       -1.67132600      -1.35950800       1.44200200
H       -1.20121600       0.35254200       1.25281600
H       -3.62719800       0.16425200       1.83728800
H       -3.37796100       0.88154700       0.23829200
H       -4.28196200      -1.85673400       0.75138100
H       -4.92982600      -0.72678900      -0.24207800
H       -0.46645100      -1.27922700      -0.50823800
H       -2.09156400      -1.27588600      -0.99215200
C       -1.82037400      -0.45229800       0.84896000
C       -3.28959000      -0.04496600       0.81344100
N       -1.36188800      -0.72559900      -0.53021000
N       -4.05996000      -1.08510500       0.13175100
32
2fa1dma1eda-3
H       -0.62778300       1.18731900       3.03767700
H        1.36546500       1.20718300       0.26548700
C       -0.16973800       1.09061800       2.03449500
O        1.07266600       1.23323100       1.94709500
O       -0.93434100       0.83851800       1.06276700
H       -4.64189900      -0.42171600      -0.65912500
H       -2.40028800       0.50251300       0.89482900
C       -3.57655400      -0.21154900      -0.48156500
O       -3.38184900       0.27794400       0.71468600
O       -2.73052600      -0.42660700      -1.33277200
N        1.42457000       1.13515800      -0.78472000
C        2.82348000       1.23846000      -1.22786100
C        0.51456500       2.12386500      -1.39086200
H        1.04437100       0.16043700      -0.99511000
H        3.23293100       2.20753000      -0.93473200
H        3.37731100       0.42832500      -0.75362300
H        2.87130400       1.13592700      -2.31463300
H        0.86167500       3.13338300      -1.16032100
H        0.49223200       1.98021400      -2.47353000
H       -0.47705100       1.96359000      -0.96782600
H        1.99670700      -3.10596800      -0.37793300
H        1.38676100      -3.19164500       1.27624200
H       -0.49542700      -2.97644100      -0.13014600
H       -0.32123300      -1.44439300       0.72982300
H        0.42373200      -1.87818800      -2.06104500
H       -0.79613500      -0.95683400      -1.45287400
H        1.97494300      -0.77192200       1.42314000
H        3.27983700      -1.69381000       1.07311000
C        1.52211200      -2.51545600       0.41701000
C        0.13365000      -2.08008800      -0.03600400
N        2.38780000      -1.37449100       0.71120700
N        0.15332300      -1.29285100      -1.27575800
