19
1sa1eda-17
S       -1.48840800       0.02710700      -0.10084700
O       -0.62978300      -0.61413800      -1.10338200
O       -1.32972100      -0.97846400       1.19520800
O       -0.87563600       1.31668000       0.36402100
O       -2.91316700       0.11854300      -0.36153100
C        2.14676400      -0.73571600       0.63317200
N        2.19246000      -1.27386100      -0.72313000
C        2.44323800       0.76862600       0.58367300
N        1.58206300       1.35990500      -0.47276000
H        2.86820500      -2.01658800      -0.83419100
H       -2.11607100      -0.86740000       1.74513800
H        1.16345700      -0.89597100       1.08611800
H        2.88801400      -1.20611000       1.28605800
H        3.48673000       0.94541900       0.31065100
H        2.22086500       1.26299200       1.53139900
H        0.54715900       1.40219600      -0.14238400
H        1.61989300       0.70994000      -1.27305000
H        1.88764600       2.28456300      -0.76419200
H        1.27340500      -1.59349000      -1.01636300
19
1sa1eda-30
S       -1.38984300      -0.07248300       0.07593200
O       -0.60197100      -0.66181500      -1.02248800
O       -1.69868800      -0.97541800       1.17866100
O       -0.80694600       1.24247000       0.48340700
O       -2.82298300       0.37157200      -0.55958900
C        2.21619500      -0.69975000       0.65079800
C        2.49417900       0.80204600       0.51042700
N        1.58305200       1.33376700      -0.53704300
N        2.21789300      -1.31045200      -0.67482300
H       -3.44588300      -0.34415200      -0.37768800
H        2.87783600      -2.07067200      -0.75966300
H        2.98755900      -1.12695600       1.29806900
H        1.25478400      -0.84553500       1.15410700
H        3.52307900       0.97077300       0.18298200
H        2.30701900       1.34343800       1.43978000
H        1.58679300       0.64645900      -1.30607800
H        1.86696800       2.24517400      -0.88635400
H        1.28579600      -1.63077500      -0.92495300
H        0.56936600       1.38050200      -0.15933200
19
1sa1eda-40
S       -1.38913700      -0.08352500       0.07024900
O       -1.70003700      -0.93262600       1.21372900
O       -0.81172200       1.24546200       0.46533300
O       -0.59870400      -0.68050700      -1.01446600
O       -2.81297100       0.27021800      -0.63642600
H       -3.48372300       0.27726200       0.05901900
C        2.21577800      -0.68931300       0.65903800
N        2.22513600      -1.31087300      -0.66144500
C        2.48799600       0.81250300       0.50741600
N        1.57794700       1.33214400      -0.54684500
H        1.29797500      -1.64546100      -0.91028700
H        2.89498700      -2.06300500      -0.74051800
H        1.25282000      -0.83463100       1.15938000
H        2.98586400      -1.10802700       1.31340700
H        3.51736400       0.98274600       0.18212400
H        2.29581000       1.36027000       1.43201700
H        1.86149800       2.24022700      -0.90491300
H        0.56172000       1.38134700      -0.17121400
H        1.58512700       0.63726200      -1.30905400
