1sa_1a_1dma.log
 OpenBabel02271919093D
Gaussian opt/gaussian/g09/g09 # opt freq 6-31++g(d,p) wb97xd
 21 18  0  0  0  0  0  0  0  0999 V2000
    1.3812   -0.1100   -0.0755 S   0  0  0  0  0  0  0  0  0  0  0  0
    2.8771   -0.7305    0.0605 O   0  0  0  0  0  0  0  0  0  0  0  0
    0.8996    0.1617    1.2923 O   0  0  0  0  0  0  0  0  0  0  0  0
    0.5690   -1.1896   -0.7147 O   0  0  0  0  0  0  0  0  0  0  0  0
    1.5692    1.0692   -0.9142 O   0  0  0  0  0  0  0  0  0  0  0  0
    2.8232   -1.5203    0.6143 H   0  0  0  0  0  0  0  0  0  0  0  0
   -0.9621    2.3061    0.1907 N   0  0  0  0  0  0  0  0  0  0  0  0
   -1.4371    3.2001    0.1285 H   0  0  0  0  0  0  0  0  0  0  0  0
   -0.5128    2.2402    1.1019 H   0  0  0  0  0  0  0  0  0  0  0  0
   -1.6672    0.7167   -0.0050 H   0  0  0  0  0  0  0  0  0  0  0  0
   -0.1859    2.3002   -0.4742 H   0  0  0  0  0  0  0  0  0  0  0  0
   -2.2038   -0.8424    1.2593 C   0  0  0  0  0  0  0  0  0  0  0  0
   -3.0836   -0.3344    1.6598 H   0  0  0  0  0  0  0  0  0  0  0  0
   -1.3314   -0.6553    1.8871 H   0  0  0  0  0  0  0  0  0  0  0  0
   -2.3921   -1.9157    1.1965 H   0  0  0  0  0  0  0  0  0  0  0  0
   -1.8990   -0.3189   -0.0872 N   0  0  0  0  0  0  0  0  0  0  0  0
   -2.9572   -0.5233   -1.0902 C   0  0  0  0  0  0  0  0  0  0  0  0
   -0.9935   -0.7568   -0.4119 H   0  0  0  0  0  0  0  0  0  0  0  0
   -3.8753   -0.0316   -0.7621 H   0  0  0  0  0  0  0  0  0  0  0  0
   -2.6291   -0.0945   -2.0376 H   0  0  0  0  0  0  0  0  0  0  0  0
   -3.1387   -1.5916   -1.2200 H   0  0  0  0  0  0  0  0  0  0  0  0
  1  2  1  0  0  0  0
  1  3  1  0  0  0  0
  2  6  1  0  0  0  0
  4  1  2  0  0  0  0
  5  1  2  0  0  0  0
  7  9  1  0  0  0  0
  8  7  1  0  0  0  0
 11  7  1  0  0  0  0
 12 13  1  0  0  0  0
 12 14  1  0  0  0  0
 15 12  1  0  0  0  0
 16 10  1  0  0  0  0
 16 12  1  0  0  0  0
 17 19  1  0  0  0  0
 17 16  1  0  0  0  0
 18 16  1  0  0  0  0
 20 17  1  0  0  0  0
 21 17  1  0  0  0  0
M  RAD  1   3   2
M  END
$$$$
