2sa_2a_2dma.log
 OpenBabel02271919093D
Gaussian opt/gaussian/g09/g09 # opt freq 6-31++g(d,p) wb97xd
 42 36  0  0  0  0  0  0  0  0999 V2000
   -3.1555   -0.0247    0.1645 S   0  0  0  0  0  0  0  0  0  0  0  0
   -2.5412    0.9047    1.3270 O   0  0  0  0  0  0  0  0  0  0  0  0
   -0.4356    2.1363   -0.5786 N   0  0  0  0  0  0  0  0  0  0  0  0
    0.1504    1.4966   -0.0071 H   0  0  0  0  0  0  0  0  0  0  0  0
   -1.3068    1.5667   -0.7558 H   0  0  0  0  0  0  0  0  0  0  0  0
    0.2543    2.3649   -1.8655 C   0  0  0  0  0  0  0  0  0  0  0  0
   -0.7580    3.3628    0.1755 C   0  0  0  0  0  0  0  0  0  0  0  0
    0.1673    3.8783    0.4379 H   0  0  0  0  0  0  0  0  0  0  0  0
   -1.3108    3.0751    1.0692 H   0  0  0  0  0  0  0  0  0  0  0  0
   -1.3825    4.0078   -0.4447 H   0  0  0  0  0  0  0  0  0  0  0  0
    1.2203    2.8351   -1.6818 H   0  0  0  0  0  0  0  0  0  0  0  0
    0.4190    1.3991   -2.3444 H   0  0  0  0  0  0  0  0  0  0  0  0
   -0.3752    2.9898   -2.5009 H   0  0  0  0  0  0  0  0  0  0  0  0
   -2.7805   -1.4220    0.5357 O   0  0  0  0  0  0  0  0  0  0  0  0
   -2.3905    0.3913   -1.0590 O   0  0  0  0  0  0  0  0  0  0  0  0
    5.6309    0.3081    0.6860 N   0  0  0  0  0  0  0  0  0  0  0  0
    4.1519   -0.3784    1.1026 H   0  0  0  0  0  0  0  0  0  0  0  0
    5.2694    1.0973    0.1534 H   0  0  0  0  0  0  0  0  0  0  0  0
   -0.5673   -1.9613   -2.2295 C   0  0  0  0  0  0  0  0  0  0  0  0
   -1.1534   -1.0809   -2.4938 H   0  0  0  0  0  0  0  0  0  0  0  0
   -1.0708   -2.8586   -2.5932 H   0  0  0  0  0  0  0  0  0  0  0  0
    0.4450   -1.8987   -2.6319 H   0  0  0  0  0  0  0  0  0  0  0  0
   -0.4852   -2.0173   -0.7551 N   0  0  0  0  0  0  0  0  0  0  0  0
    0.1736   -3.2289   -0.2282 C   0  0  0  0  0  0  0  0  0  0  0  0
   -1.4395   -1.8976   -0.3286 H   0  0  0  0  0  0  0  0  0  0  0  0
    0.0483   -1.1963   -0.4075 H   0  0  0  0  0  0  0  0  0  0  0  0
    0.2200   -3.1549    0.8588 H   0  0  0  0  0  0  0  0  0  0  0  0
   -0.4043   -4.1089   -0.5147 H   0  0  0  0  0  0  0  0  0  0  0  0
    1.1861   -3.2792   -0.6306 H   0  0  0  0  0  0  0  0  0  0  0  0
    2.3672   -0.0586   -0.0277 S   0  0  0  0  0  0  0  0  0  0  0  0
    3.1780   -0.6352    1.2174 O   0  0  0  0  0  0  0  0  0  0  0  0
    0.9578    0.0103    0.5066 O   0  0  0  0  0  0  0  0  0  0  0  0
    2.4458   -1.0293   -1.1259 O   0  0  0  0  0  0  0  0  0  0  0  0
    2.8999    1.2777   -0.3283 O   0  0  0  0  0  0  0  0  0  0  0  0
    0.0285   -0.5020    2.2621 H   0  0  0  0  0  0  0  0  0  0  0  0
   -4.5746    0.2473    0.0990 O   0  0  0  0  0  0  0  0  0  0  0  0
    6.2175    0.6622    1.4336 H   0  0  0  0  0  0  0  0  0  0  0  0
    6.2056   -0.2549    0.0680 H   0  0  0  0  0  0  0  0  0  0  0  0
   -0.8533   -0.5399    2.7748 N   0  0  0  0  0  0  0  0  0  0  0  0
   -0.6760   -0.3547    3.7556 H   0  0  0  0  0  0  0  0  0  0  0  0
   -1.2509   -1.4704    2.6871 H   0  0  0  0  0  0  0  0  0  0  0  0
   -1.9199    0.3663    1.9334 H   0  0  0  0  0  0  0  0  0  0  0  0
  1 14  1  0  0  0  0
  1  2  1  0  0  0  0
  2 42  1  0  0  0  0
  3  4  1  0  0  0  0
  3  7  1  0  0  0  0
  5  3  1  0  0  0  0
  6 11  1  0  0  0  0
  6  3  1  0  0  0  0
  7  8  1  0  0  0  0
  7  9  1  0  0  0  0
 10  7  1  0  0  0  0
 12  6  1  0  0  0  0
 13  6  1  0  0  0  0
 15  1  2  0  0  0  0
 16 37  1  0  0  0  0
 17 31  1  0  0  0  0
 18 16  1  0  0  0  0
 19 23  1  0  0  0  0
 20 19  1  0  0  0  0
 21 19  1  0  0  0  0
 22 19  1  0  0  0  0
 23 26  1  0  0  0  0
 23 25  1  0  0  0  0
 23 24  1  0  0  0  0
 24 27  1  0  0  0  0
 28 24  1  0  0  0  0
 29 24  1  0  0  0  0
 30 32  1  0  0  0  0
 30 31  1  0  0  0  0
 33 30  2  0  0  0  0
 34 30  2  0  0  0  0
 35 39  1  0  0  0  0
 36  1  2  0  0  0  0
 38 16  1  0  0  0  0
 39 40  1  0  0  0  0
 41 39  1  0  0  0  0
M  RAD  2  14   2  32   2
M  END
$$$$
