4sa_1a_2dma.log
 OpenBabel02271919093D
Gaussian opt/gaussian/g09/g09 # opt freq 6-31++g(d,p) wb97xd
 52 45  0  0  0  0  0  0  0  0999 V2000
    0.3365    0.0928    2.0344 N   0  0  0  0  0  0  0  0  0  0  0  0
    0.0329   -0.0470    2.9935 H   0  0  0  0  0  0  0  0  0  0  0  0
    1.3563   -0.1081    1.9134 H   0  0  0  0  0  0  0  0  0  0  0  0
   -0.1721   -0.5432    1.4033 H   0  0  0  0  0  0  0  0  0  0  0  0
    0.5905    2.6551   -0.3924 S   0  0  0  0  0  0  0  0  0  0  0  0
   -0.1829    3.3463   -1.4249 O   0  0  0  0  0  0  0  0  0  0  0  0
    1.0645    1.2939   -0.8447 O   0  0  0  0  0  0  0  0  0  0  0  0
   -0.1542    2.5231    0.8812 O   0  0  0  0  0  0  0  0  0  0  0  0
   -0.0727    0.3496   -1.3174 H   0  0  0  0  0  0  0  0  0  0  0  0
   -0.7953   -1.7187   -1.2854 S   0  0  0  0  0  0  0  0  0  0  0  0
   -0.9251   -0.1513   -1.5248 O   0  0  0  0  0  0  0  0  0  0  0  0
   -2.1327   -2.2187   -1.6352 O   0  0  0  0  0  0  0  0  0  0  0  0
    0.3152   -2.2149   -2.1018 O   0  0  0  0  0  0  0  0  0  0  0  0
   -0.5020   -1.9062    0.1796 O   0  0  0  0  0  0  0  0  0  0  0  0
    0.1401    1.0701    1.7284 H   0  0  0  0  0  0  0  0  0  0  0  0
    1.8974    3.4924   -0.1489 O   0  0  0  0  0  0  0  0  0  0  0  0
    2.5104    2.9614    0.4399 H   0  0  0  0  0  0  0  0  0  0  0  0
   -3.5332   -1.0163    1.2840 S   0  0  0  0  0  0  0  0  0  0  0  0
   -4.1208   -1.3439   -0.1441 O   0  0  0  0  0  0  0  0  0  0  0  0
   -2.6698   -2.2885    1.6464 O   0  0  0  0  0  0  0  0  0  0  0  0
   -4.6306   -0.9234    2.2001 O   0  0  0  0  0  0  0  0  0  0  0  0
   -2.6080    0.1142    1.1553 O   0  0  0  0  0  0  0  0  0  0  0  0
   -3.4039   -1.6742   -0.7669 H   0  0  0  0  0  0  0  0  0  0  0  0
   -1.8246   -2.2718    1.1094 H   0  0  0  0  0  0  0  0  0  0  0  0
    3.7986    0.4892    0.8509 S   0  0  0  0  0  0  0  0  0  0  0  0
    3.6194    0.4863   -0.7582 O   0  0  0  0  0  0  0  0  0  0  0  0
    5.1930    0.1888    1.0731 O   0  0  0  0  0  0  0  0  0  0  0  0
    3.2912    1.7932    1.3278 O   0  0  0  0  0  0  0  0  0  0  0  0
    2.8681   -0.6109    1.3130 O   0  0  0  0  0  0  0  0  0  0  0  0
    2.7186    0.8322   -0.9623 H   0  0  0  0  0  0  0  0  0  0  0  0
    2.6258   -2.6092   -0.5337 N   0  0  0  0  0  0  0  0  0  0  0  0
    2.6792   -1.8158    0.1499 H   0  0  0  0  0  0  0  0  0  0  0  0
    1.8594   -2.3914   -1.1967 H   0  0  0  0  0  0  0  0  0  0  0  0
    3.9203   -2.6968   -1.2501 C   0  0  0  0  0  0  0  0  0  0  0  0
    2.2560   -3.8363    0.2066 C   0  0  0  0  0  0  0  0  0  0  0  0
    3.8709   -3.5012   -1.9850 H   0  0  0  0  0  0  0  0  0  0  0  0
    4.1101   -1.7399   -1.7345 H   0  0  0  0  0  0  0  0  0  0  0  0
    4.7096   -2.8922   -0.5232 H   0  0  0  0  0  0  0  0  0  0  0  0
    2.2027   -4.6734   -0.4907 H   0  0  0  0  0  0  0  0  0  0  0  0
    3.0099   -4.0290    0.9708 H   0  0  0  0  0  0  0  0  0  0  0  0
    1.2806   -3.6755    0.6652 H   0  0  0  0  0  0  0  0  0  0  0  0
   -2.6974    2.1313   -0.8222 N   0  0  0  0  0  0  0  0  0  0  0  0
   -1.8449    2.5737   -1.2142 H   0  0  0  0  0  0  0  0  0  0  0  0
   -2.3854    1.3178   -0.2685 H   0  0  0  0  0  0  0  0  0  0  0  0
   -3.3311    3.0905    0.1138 C   0  0  0  0  0  0  0  0  0  0  0  0
   -3.5790    1.6477   -1.9102 C   0  0  0  0  0  0  0  0  0  0  0  0
   -4.1796    2.6038    0.5953 H   0  0  0  0  0  0  0  0  0  0  0  0
   -2.5849    3.3719    0.8559 H   0  0  0  0  0  0  0  0  0  0  0  0
   -3.6595    3.9676   -0.4448 H   0  0  0  0  0  0  0  0  0  0  0  0
   -4.4342    1.1356   -1.4678 H   0  0  0  0  0  0  0  0  0  0  0  0
   -3.9122    2.4996   -2.5037 H   0  0  0  0  0  0  0  0  0  0  0  0
   -3.0099    0.9522   -2.5260 H   0  0  0  0  0  0  0  0  0  0  0  0
  1  2  1  0  0  0  0
  3  1  1  0  0  0  0
  4  1  1  0  0  0  0
  5 16  1  0  0  0  0
  5  8  1  0  0  0  0
  6  5  2  0  0  0  0
  7  5  2  0  0  0  0
 10 14  1  0  0  0  0
 11  9  1  0  0  0  0
 11 10  1  0  0  0  0
 12 10  2  0  0  0  0
 13 10  2  0  0  0  0
 15  1  1  0  0  0  0
 16 17  1  0  0  0  0
 18 20  1  0  0  0  0
 18 21  2  0  0  0  0
 19 18  1  0  0  0  0
 22 18  2  0  0  0  0
 23 19  1  0  0  0  0
 24 20  1  0  0  0  0
 25 27  2  0  0  0  0
 25 29  2  0  0  0  0
 25 28  1  0  0  0  0
 26 25  1  0  0  0  0
 30 26  1  0  0  0  0
 31 32  1  0  0  0  0
 31 35  1  0  0  0  0
 33 31  1  0  0  0  0
 34 31  1  0  0  0  0
 34 38  1  0  0  0  0
 35 41  1  0  0  0  0
 35 40  1  0  0  0  0
 36 34  1  0  0  0  0
 37 34  1  0  0  0  0
 39 35  1  0  0  0  0
 42 44  1  0  0  0  0
 42 45  1  0  0  0  0
 43 42  1  0  0  0  0
 45 47  1  0  0  0  0
 45 48  1  0  0  0  0
 46 50  1  0  0  0  0
 46 42  1  0  0  0  0
 49 45  1  0  0  0  0
 51 46  1  0  0  0  0
 52 46  1  0  0  0  0
M  RAD  3   8   2  14   2  28   2
M  END
$$$$
