4sa_1a_3dma.log
 OpenBabel02271919093D
Gaussian opt/gaussian/g09/g09 # opt freq 6-31++g(d,p) wb97xd
 62 54  0  0  0  0  0  0  0  0999 V2000
   -2.5739   -1.9082    0.8246 S   0  0  0  0  0  0  0  0  0  0  0  0
   -1.1053   -2.0846    1.0061 O   0  0  0  0  0  0  0  0  0  0  0  0
   -2.9290   -0.5499    1.6149 O   0  0  0  0  0  0  0  0  0  0  0  0
   -2.8647   -1.5878   -0.6138 O   0  0  0  0  0  0  0  0  0  0  0  0
   -3.4177   -2.9273    1.4013 O   0  0  0  0  0  0  0  0  0  0  0  0
   -4.0378   -0.3479   -0.7824 H   0  0  0  0  0  0  0  0  0  0  0  0
    0.6849   -0.2477    2.1576 N   0  0  0  0  0  0  0  0  0  0  0  0
   -0.0169   -0.7715    1.6055 H   0  0  0  0  0  0  0  0  0  0  0  0
    1.2226    0.3443    1.5015 H   0  0  0  0  0  0  0  0  0  0  0  0
   -3.2595    2.5735    0.0048 O   0  0  0  0  0  0  0  0  0  0  0  0
   -1.8041    1.8871   -1.8625 O   0  0  0  0  0  0  0  0  0  0  0  0
   -1.8945    2.2241   -0.4261 S   0  0  0  0  0  0  0  0  0  0  0  0
   -1.3035    1.1331    0.4089 O   0  0  0  0  0  0  0  0  0  0  0  0
   -1.0372    3.5203   -0.1448 O   0  0  0  0  0  0  0  0  0  0  0  0
   -0.0748    3.3211   -0.3115 H   0  0  0  0  0  0  0  0  0  0  0  0
   -2.3616    0.1777    1.2346 H   0  0  0  0  0  0  0  0  0  0  0  0
   -4.2978    1.2497   -0.3878 H   0  0  0  0  0  0  0  0  0  0  0  0
   -4.7576    0.4098   -0.8055 N   0  0  0  0  0  0  0  0  0  0  0  0
   -5.9029   -0.0190    0.0270 C   0  0  0  0  0  0  0  0  0  0  0  0
   -5.0846    0.7250   -2.2136 C   0  0  0  0  0  0  0  0  0  0  0  0
    1.6051   -1.2235    2.7835 C   0  0  0  0  0  0  0  0  0  0  0  0
    0.0138    0.6354    3.1391 C   0  0  0  0  0  0  0  0  0  0  0  0
   -0.5806    1.3640    2.5916 H   0  0  0  0  0  0  0  0  0  0  0  0
    0.7781    1.1425    3.7291 H   0  0  0  0  0  0  0  0  0  0  0  0
   -0.6260    0.0288    3.7813 H   0  0  0  0  0  0  0  0  0  0  0  0
    2.3897   -0.6767    3.3087 H   0  0  0  0  0  0  0  0  0  0  0  0
    2.0277   -1.8527    2.0028 H   0  0  0  0  0  0  0  0  0  0  0  0
    1.0401   -1.8409    3.4828 H   0  0  0  0  0  0  0  0  0  0  0  0
   -5.4540   -0.1749   -2.7072 H   0  0  0  0  0  0  0  0  0  0  0  0
   -5.8461    1.5054   -2.2377 H   0  0  0  0  0  0  0  0  0  0  0  0
   -4.1760    1.0857   -2.6975 H   0  0  0  0  0  0  0  0  0  0  0  0
   -6.6444    0.7803    0.0590 H   0  0  0  0  0  0  0  0  0  0  0  0
   -6.3395   -0.9209   -0.4037 H   0  0  0  0  0  0  0  0  0  0  0  0
   -5.5326   -0.2338    1.0295 H   0  0  0  0  0  0  0  0  0  0  0  0
    1.7779   -2.7463   -0.8485 S   0  0  0  0  0  0  0  0  0  0  0  0
    1.7113   -1.2812   -0.4506 O   0  0  0  0  0  0  0  0  0  0  0  0
    1.0965   -3.5254    0.3786 O   0  0  0  0  0  0  0  0  0  0  0  0
    0.9709   -2.9828   -2.0466 O   0  0  0  0  0  0  0  0  0  0  0  0
    3.1571   -3.2206   -0.8563 O   0  0  0  0  0  0  0  0  0  0  0  0
    0.2262   -0.6281   -1.2542 H   0  0  0  0  0  0  0  0  0  0  0  0
    4.2784   -0.3018   -0.7141 N   0  0  0  0  0  0  0  0  0  0  0  0
    3.2791   -0.6059   -0.6515 H   0  0  0  0  0  0  0  0  0  0  0  0
    4.2613    0.7368   -0.7271 H   0  0  0  0  0  0  0  0  0  0  0  0
    1.4700    2.8765   -0.6632 O   0  0  0  0  0  0  0  0  0  0  0  0
    3.8827    2.4477   -0.6795 O   0  0  0  0  0  0  0  0  0  0  0  0
    2.6683    2.5958    0.1450 S   0  0  0  0  0  0  0  0  0  0  0  0
    2.5136    1.5181    1.1344 O   0  0  0  0  0  0  0  0  0  0  0  0
    2.9035    3.8987    1.0842 O   0  0  0  0  0  0  0  0  0  0  0  0
    3.0359    4.6671    0.5116 H   0  0  0  0  0  0  0  0  0  0  0  0
    0.1784   -3.1943    0.5098 H   0  0  0  0  0  0  0  0  0  0  0  0
   -0.8449    0.3636   -2.1369 H   0  0  0  0  0  0  0  0  0  0  0  0
   -0.5686   -0.6083   -1.9199 N   0  0  0  0  0  0  0  0  0  0  0  0
    4.8695   -0.8139   -1.9704 C   0  0  0  0  0  0  0  0  0  0  0  0
    4.9544   -0.7745    0.5133 C   0  0  0  0  0  0  0  0  0  0  0  0
    4.4750   -0.2899    1.3643 H   0  0  0  0  0  0  0  0  0  0  0  0
    6.0095   -0.4990    0.4743 H   0  0  0  0  0  0  0  0  0  0  0  0
    4.8403   -1.8579    0.5710 H   0  0  0  0  0  0  0  0  0  0  0  0
    4.7943   -1.9013   -1.9705 H   0  0  0  0  0  0  0  0  0  0  0  0
    5.9097   -0.4903   -2.0340 H   0  0  0  0  0  0  0  0  0  0  0  0
    4.3068   -0.4040   -2.8095 H   0  0  0  0  0  0  0  0  0  0  0  0
   -1.3814   -1.0684   -1.4681 H   0  0  0  0  0  0  0  0  0  0  0  0
   -0.2756   -1.1588   -2.7254 H   0  0  0  0  0  0  0  0  0  0  0  0
  1  2  2  0  0  0  0
  1  5  1  0  0  0  0
  1  3  1  0  0  0  0
  4  1  2  0  0  0  0
  7 21  1  0  0  0  0
  7 22  1  0  0  0  0
  8  7  1  0  0  0  0
  9  7  1  0  0  0  0
 11 12  2  0  0  0  0
 12 14  1  0  0  0  0
 12 10  2  0  0  0  0
 12 13  1  0  0  0  0
 15 14  1  0  0  0  0
 16  3  1  0  0  0  0
 18  6  1  0  0  0  0
 18 17  1  0  0  0  0
 18 19  1  0  0  0  0
 19 32  1  0  0  0  0
 19 34  1  0  0  0  0
 20 18  1  0  0  0  0
 21 26  1  0  0  0  0
 21 28  1  0  0  0  0
 22 24  1  0  0  0  0
 22 25  1  0  0  0  0
 23 22  1  0  0  0  0
 27 21  1  0  0  0  0
 29 20  1  0  0  0  0
 30 20  1  0  0  0  0
 31 20  1  0  0  0  0
 33 19  1  0  0  0  0
 35 36  1  0  0  0  0
 35 37  1  0  0  0  0
 37 50  1  0  0  0  0
 38 35  2  0  0  0  0
 39 35  2  0  0  0  0
 41 42  1  0  0  0  0
 41 54  1  0  0  0  0
 43 41  1  0  0  0  0
 44 46  2  0  0  0  0
 45 46  2  0  0  0  0
 46 48  1  0  0  0  0
 46 47  1  0  0  0  0
 49 48  1  0  0  0  0
 51 52  1  0  0  0  0
 52 61  1  0  0  0  0
 52 40  1  0  0  0  0
 53 41  1  0  0  0  0
 54 57  1  0  0  0  0
 54 55  1  0  0  0  0
 56 54  1  0  0  0  0
 58 53  1  0  0  0  0
 59 53  1  0  0  0  0
 60 53  1  0  0  0  0
 62 52  1  0  0  0  0
M  RAD  4   5   2  13   2  36   2  47   2
M  END
$$$$
