4sa_1a_1dma.log
 OpenBabel02271919093D
Gaussian opt/gaussian/g09/g09 # opt freq 6-31++g(d,p) wb97xd
 42 36  0  0  0  0  0  0  0  0999 V2000
   -1.3341   -1.8948   -1.3559 N   0  0  0  0  0  0  0  0  0  0  0  0
   -2.3361   -2.1152   -1.3019 H   0  0  0  0  0  0  0  0  0  0  0  0
   -0.8856   -2.4256   -2.0977 H   0  0  0  0  0  0  0  0  0  0  0  0
   -1.2517   -0.8732   -1.5441 H   0  0  0  0  0  0  0  0  0  0  0  0
   -1.5895    1.6074   -0.4084 S   0  0  0  0  0  0  0  0  0  0  0  0
   -0.4835    2.5196   -0.1454 O   0  0  0  0  0  0  0  0  0  0  0  0
   -1.8168    0.6711    0.7601 O   0  0  0  0  0  0  0  0  0  0  0  0
   -1.5384    0.8507   -1.6655 O   0  0  0  0  0  0  0  0  0  0  0  0
   -0.4317    0.2823    1.7061 H   0  0  0  0  0  0  0  0  0  0  0  0
    1.0156   -1.1627    1.1070 S   0  0  0  0  0  0  0  0  0  0  0  0
    0.4537    0.0039    2.0487 O   0  0  0  0  0  0  0  0  0  0  0  0
    2.2701   -1.5490    1.7562 O   0  0  0  0  0  0  0  0  0  0  0  0
   -0.0193   -2.2076    1.0299 O   0  0  0  0  0  0  0  0  0  0  0  0
    1.2216   -0.5210   -0.2305 O   0  0  0  0  0  0  0  0  0  0  0  0
   -0.8663   -2.0981   -0.4398 H   0  0  0  0  0  0  0  0  0  0  0  0
   -2.8764    2.5457   -0.4645 O   0  0  0  0  0  0  0  0  0  0  0  0
   -3.6526    2.0014   -0.7138 H   0  0  0  0  0  0  0  0  0  0  0  0
    4.5838   -0.7916   -0.7095 S   0  0  0  0  0  0  0  0  0  0  0  0
    4.5513   -1.8775    0.4309 O   0  0  0  0  0  0  0  0  0  0  0  0
    3.3526   -1.1662   -1.6334 O   0  0  0  0  0  0  0  0  0  0  0  0
    5.7823   -0.9848   -1.4685 O   0  0  0  0  0  0  0  0  0  0  0  0
    4.3020    0.5155   -0.1113 O   0  0  0  0  0  0  0  0  0  0  0  0
    3.7361   -1.7712    0.9954 H   0  0  0  0  0  0  0  0  0  0  0  0
    2.5007   -0.9356   -1.1637 H   0  0  0  0  0  0  0  0  0  0  0  0
   -4.7329   -0.7228   -0.1633 S   0  0  0  0  0  0  0  0  0  0  0  0
   -3.9747   -0.5892    1.1946 O   0  0  0  0  0  0  0  0  0  0  0  0
   -6.1395   -1.2512    0.3459 O   0  0  0  0  0  0  0  0  0  0  0  0
   -4.8968    0.5938   -0.7615 O   0  0  0  0  0  0  0  0  0  0  0  0
   -4.1905   -1.7943   -0.9692 O   0  0  0  0  0  0  0  0  0  0  0  0
   -6.6172   -0.5417    0.8018 H   0  0  0  0  0  0  0  0  0  0  0  0
   -3.1061   -0.0599    1.0592 H   0  0  0  0  0  0  0  0  0  0  0  0
    2.2204    2.2335    0.3770 N   0  0  0  0  0  0  0  0  0  0  0  0
    1.2165    2.0451    0.2205 H   0  0  0  0  0  0  0  0  0  0  0  0
    2.7479    1.3656    0.1871 H   0  0  0  0  0  0  0  0  0  0  0  0
    2.6587    3.2538   -0.6018 C   0  0  0  0  0  0  0  0  0  0  0  0
    2.4380    2.6148    1.7915 C   0  0  0  0  0  0  0  0  0  0  0  0
    3.7279    3.4250   -0.4757 H   0  0  0  0  0  0  0  0  0  0  0  0
    2.4609    2.8774   -1.6048 H   0  0  0  0  0  0  0  0  0  0  0  0
    2.0957    4.1721   -0.4340 H   0  0  0  0  0  0  0  0  0  0  0  0
    3.5058    2.7661    1.9524 H   0  0  0  0  0  0  0  0  0  0  0  0
    1.8869    3.5330    1.9981 H   0  0  0  0  0  0  0  0  0  0  0  0
    2.0710    1.8066    2.4230 H   0  0  0  0  0  0  0  0  0  0  0  0
  1  2  1  0  0  0  0
  1 15  1  0  0  0  0
  3  1  1  0  0  0  0
  4  1  1  0  0  0  0
  5  6  2  0  0  0  0
  5  7  1  0  0  0  0
  8  5  2  0  0  0  0
  9 11  1  0  0  0  0
 10 12  1  0  0  0  0
 10 11  1  0  0  0  0
 13 10  2  0  0  0  0
 14 10  2  0  0  0  0
 16  5  1  0  0  0  0
 17 16  1  0  0  0  0
 18 22  2  0  0  0  0
 18 19  1  0  0  0  0
 19 23  1  0  0  0  0
 20 24  1  0  0  0  0
 20 18  1  0  0  0  0
 21 18  2  0  0  0  0
 25 27  1  0  0  0  0
 25 26  1  0  0  0  0
 27 30  1  0  0  0  0
 28 25  2  0  0  0  0
 29 25  2  0  0  0  0
 31 26  1  0  0  0  0
 32 36  1  0  0  0  0
 33 32  1  0  0  0  0
 34 32  1  0  0  0  0
 35 37  1  0  0  0  0
 35 39  1  0  0  0  0
 35 32  1  0  0  0  0
 36 40  1  0  0  0  0
 36 41  1  0  0  0  0
 36 42  1  0  0  0  0
 38 35  1  0  0  0  0
M  RAD  2   7   2  12   2
M  END
$$$$
