62
4sa2am2tma-7
S        0.95007700      -2.00929900      -1.75004500
O        1.61799100      -1.00805300      -2.81351500
O       -0.15049300      -1.17246100      -1.11874200
O        1.97073200      -2.33501100      -0.74854100
O        0.39696400      -3.10259100      -2.52902800
H        0.30064500      -0.42676000       0.21771300
H        2.06376000      -0.28479700      -2.30440600
S       -3.36459000       1.83918300      -0.09731300
O       -3.27844300       0.64648200      -1.00482300
O       -2.05049300       2.54625300      -0.13645800
O       -4.52603900       2.67758200      -0.29777900
O       -3.51910900       1.24749200       1.38409200
H       -2.79944100       0.58897400       1.56250700
S        2.29788400       2.24804100      -0.96609600
O        1.10465000       2.70061600      -1.69463500
O        2.36079100       2.75144300       0.41974400
O        2.58261000       0.80482900      -1.07664000
O        3.57635300       2.89146200      -1.73499600
H        3.46210500       3.85121700      -1.76970300
S       -0.33126600      -0.51356100       2.29032300
O        0.58277900       0.02269700       1.06641800
O       -1.69452200      -0.65034100       1.70174700
O        0.21933900      -1.79306100       2.72983200
O       -0.22127400       0.58814700       3.26270100
N       -0.15409900       2.92178600       1.73381000
H       -0.91760600       2.79278600       1.02008700
H        0.76655600       2.89434100       1.25873900
H       -0.28019200       3.81165400       2.20700800
H       -0.19933300       2.13574300       2.41470500
N       -1.02053500       1.03472500      -2.48689300
H       -0.59287300       0.15583500      -2.13431000
H       -1.03319200       1.04565500      -3.50192500
H       -1.97902600       1.05100700      -2.07175300
H       -0.45099700       1.81770200      -2.12914300
N       -2.75444500      -2.29489800      -0.30796000
C       -4.01782600      -2.07624400       0.44688900
C       -3.00309800      -2.41417700      -1.76789200
C       -1.99157700      -3.45619000       0.22403200
H       -2.04622800      -2.54804100      -2.27321700
H       -3.64322200      -3.28205300      -1.93964300
H       -3.49845000      -1.50140100      -2.09845600
H       -3.77123200      -1.97100500       1.50223000
H       -4.47742400      -1.15884300       0.08089600
H       -4.67048600      -2.93637100       0.28460800
H       -1.68418000      -3.22619100       1.24441300
H       -2.63839900      -4.33550800       0.19889100
H       -1.11628400      -3.61714500      -0.40388200
H       -2.16714600      -1.46233200      -0.15004900
N        3.39668300      -1.01764300       1.29262200
C        4.57624900      -0.97448300       0.38985000
C        3.39633000       0.11258100       2.25821600
C        3.28321400      -2.33360300       1.97918100
H        2.54046800       0.00513300       2.92383400
H        4.32679500       0.07755900       2.82898800
H        3.31108900       1.04676400       1.70198800
H        4.45240800      -1.75057100      -0.36474500
H        4.60751000       0.00016100      -0.09362800
H        5.47497200      -1.14942600       0.98480000
H        3.27493400      -3.11402400       1.21981400
H        4.13910600      -2.44730600       2.64798800
H        2.34336100      -2.34922200       2.53182700
H        2.56066700      -0.92233600       0.69619400
62
4sa2am2tma-2
S        1.55345400      -0.81221500       2.32236600
O        0.98269400       0.12343500       1.28639100
O        1.34903000      -0.32919100       3.67842100
O        1.07975900      -2.18824100       2.07014600
O        3.13314200      -0.78070500       2.07194200
H        3.31505300      -0.74214500       1.09767700
H       -1.85393700      -0.39599100       1.54504200
S       -2.31368000      -1.70525000      -0.92391600
O       -1.46004200      -0.86633900      -0.01662400
O       -3.32365900      -2.44454000      -0.17969500
O       -3.00504300      -0.69606300      -1.93722700
O       -1.44874800      -2.52538600      -1.81220500
H       -0.60122100      -0.44950700      -4.43884800
H       -3.11904500       0.22390300      -1.54046700
S        2.62733100      -1.01508900      -1.61742700
O        3.43385700      -0.30235000      -0.59739500
O        2.60128200      -0.36478400      -2.93579500
O        2.87543400      -2.46764600      -1.65366700
O        1.09381600      -0.87869100      -1.11934000
H        1.02643300      -0.51815900      -0.19078400
H        1.57894900      -3.34543800      -0.85730900
S       -1.73992900       2.38047600      -1.15278600
O       -1.10598400       2.00723600      -2.43959500
O       -3.06163100       1.72258100      -0.96919200
O       -0.78923000       1.70732400      -0.01229800
O       -1.68777900       3.79493300      -0.82660500
H        1.48695000       1.72855200       0.63215800
H       -0.88937500       0.72810000      -0.07432500
N        0.71498200      -3.57422900      -0.32068100
H       -0.10285300      -3.24020700      -0.86940900
H        0.76842700      -3.05107700       0.57870400
H        0.64565900      -4.57213000      -0.14375500
N       -0.25688400      -0.38977100      -3.48448000
H       -0.59243300      -1.20374800      -2.94028300
H       -0.62310900       0.48579300      -3.04070000
H        0.77878700      -0.36718700      -3.46058000
N       -2.36676400      -0.15692200       2.42177000
C       -3.75172500       0.15331400       1.97365500
C       -2.30720900      -1.37385100       3.27116700
C       -1.72059500       1.01636300       3.06557500
H       -1.26359600      -1.58279400       3.51014100
H       -2.87951300      -1.19903500       4.18461500
H       -2.73367900      -2.20323100       2.70553600
H       -3.70771700       0.98551700       1.26774500
H       -4.15548500      -0.72710400       1.47134000
H       -4.35580600       0.41288000       2.84546600
H       -1.67345500       1.82189300       2.33242800
H       -2.32228000       1.31203700       3.92798300
H       -0.71392800       0.73919000       3.38090000
N        2.00217900       2.60990100       0.44229900
C        1.23378600       3.71373300       1.07661400
C        3.34070400       2.44764900       1.07011800
C        2.10893000       2.78526600      -1.03252100
H        3.85933700       1.63441100       0.56497200
H        3.89320800       3.38308300       0.96195300
H        3.20683500       2.20277600       2.12430000
H        0.27236900       3.81870200       0.57409000
H        1.08552800       3.46762500       2.12888200
H        1.81306900       4.63490600       0.98570000
H        1.10766300       2.81879800      -1.46012700
H        2.63711300       3.72053100      -1.22973900
H        2.66414300       1.94202100      -1.44320300
62
4sa2am2tma-5
S       -1.18159900      -1.06188100       1.98387900
O       -2.20034700      -0.09786300       2.74028200
O        0.12178200      -0.78366600       2.61870600
O       -1.18515300      -0.54671100       0.56227100
O       -1.65260800      -2.43776200       2.06980000
H        0.23343400      -0.57830000      -0.16045900
H       -2.89378900       0.23305300       2.10414000
S        3.09885200       2.21680900      -0.19353400
O        3.28435400       1.12684700       0.78657900
O        1.63051400       2.59538800      -0.23369800
O        3.96784900       3.36498400      -0.05456600
O        3.41261800       1.62853000      -1.65060800
H        3.10727600       0.69809400      -1.78266600
S       -3.22285500       1.94250500       0.09880200
O       -3.86962400       0.89362100       0.92072100
O       -2.19596400       2.69891400       0.83670000
O       -2.79997100       1.48824700      -1.23384800
O       -4.39675500       3.00151400      -0.25508600
H       -4.73265100       3.37565800       0.57122300
S        1.27934700      -1.28328000      -1.97084200
O        1.15693100      -0.53073200      -0.53307400
O        0.20931700      -0.67194100      -2.80058400
O        2.64584500      -0.89942300      -2.35877100
O        1.07389300      -2.71316500      -1.73274800
N       -0.17056200       1.97799100      -2.16900600
H       -0.13077000       2.66083400      -2.92044000
H        0.54381400       2.22420800      -1.43806100
H       -1.12347100       1.95013100      -1.76359600
H        0.03555100       1.02216900      -2.53474900
N        0.25337300       2.01638800       1.99261400
H        0.35802400       1.03661300       2.30557800
H        0.87026800       2.20773700       1.15627800
H       -0.72641600       2.18208500       1.69709400
H        0.49691400       2.65081300       2.74791400
N        3.09195000      -1.61448200       1.29910100
C        4.30750800      -1.73038700       0.44772600
C        3.42137700      -1.16088800       2.67489700
C        2.30714100      -2.87861200       1.31491400
H        2.48937800      -1.05883500       3.23090000
H        4.06315500      -1.91059500       3.14272500
H        3.92839100      -0.19980100       2.60455100
H        3.99835800      -1.97998500      -0.56802700
H        4.81055200      -0.76433600       0.44621400
H        4.94957200      -2.51063100       0.86171200
H        2.02308900      -3.13058100       0.29224700
H        2.93066500      -3.66398900       1.74753500
H        1.41650000      -2.72138300       1.92285700
H        2.51153500      -0.87939800       0.85813200
N       -2.80553700      -1.98198200      -1.12896900
C       -4.10117900      -2.04635400      -0.40475800
C       -2.95681400      -1.44414000      -2.50595100
C       -2.10472600      -3.29519200      -1.11894600
H       -1.96339300      -1.36163100      -2.94968100
H       -3.58378000      -2.13009600      -3.07994100
H       -3.41455700      -0.45736700      -2.43895700
H       -3.91136800      -2.42388900       0.60096100
H       -4.51658000      -1.04068300      -0.34195100
H       -4.77243500      -2.71801800      -0.94417300
H       -1.96152300      -3.59337400      -0.07972300
H       -2.72275500      -4.02256300      -1.65009200
H       -1.13346500      -3.18400300      -1.60446500
H       -2.20529800      -1.32462100      -0.58602600
