50
4sa2am2ma-13
S        0.86143100      -1.80220800       0.55934200
O        0.52081600      -2.13569400      -0.86345300
O        1.33970800      -0.41973700       0.69359500
O       -0.25663600      -2.15372600       1.45824300
O        2.04608500      -2.76236000       0.98606500
H        2.89227600      -2.39709900       0.61125600
S       -4.53776400       0.20677000       0.08116600
O       -4.18730600       1.63677300       0.17747900
O       -4.48726800      -0.34908800      -1.27529000
O       -3.84687400      -0.64630600       1.08209000
O       -6.07707200       0.11228700       0.58304800
H       -6.59992700       0.74075200       0.06624900
S        4.54016100      -0.20727500      -0.08012500
O        4.49108000       0.35425300       1.27414600
O        4.19101700      -1.63791700      -0.16999800
O        3.84723500       0.64126100      -1.08349700
O        6.07868600      -0.11350200      -0.58441900
H        6.60252400      -0.74037300      -0.06667700
S       -0.85937300       1.80061000      -0.55399300
O       -1.33875200       0.41881500      -0.69198200
O       -0.51853600       2.13050500       0.86931000
O        0.25903600       2.15295000      -1.45236900
O       -2.04320300       2.76273200      -0.97874500
H       -2.88951000       2.39766000      -0.60392400
N       -1.56329200       0.09439100       2.41086100
H       -2.51487200      -0.06313200       2.01730400
H       -1.60909100       0.25255400       3.41268500
H       -0.99447600      -0.75077300       2.19117400
H       -1.13947300       0.91253600       1.91822000
N        1.56070100      -0.09843800      -2.40715600
H        1.13723500      -0.91619800      -1.91353700
H        1.60417700      -0.25667900      -3.40907600
H        0.99342700       0.74744700      -2.18640900
H        2.51332700       0.05794000      -2.01566500
C        2.72151400       3.52664700       0.94796800
N        2.30211000       2.11542000       0.84184700
H        2.82572900       1.49433400       1.47157800
H        1.28010000       2.00520300       0.98001400
H        3.79141200       3.59332600       0.75256500
H        2.16487000       4.10712000       0.21306300
H        2.50096300       3.89335500       1.94999700
H        2.52716200       1.73706200      -0.08715600
C       -2.74684500      -3.51305400      -0.97926100
N       -2.29840800      -2.11296200      -0.84786400
H       -2.80207400      -1.47333600      -1.47499100
H       -2.52721100      -1.74283900       0.08356900
H       -2.52182000      -3.87033300      -1.98370900
H       -2.21278000      -4.11652400      -0.24612400
H       -3.82035800      -3.55854200      -0.79821600
H       -1.27278000      -2.02022400      -0.97424800
50
4sa2am2ma-18
S        0.96444400      -1.93651200       0.07573300
O        0.87072700      -2.11033300      -1.39732000
O        1.26406700      -0.55056500       0.46880500
O       -0.24143400      -2.49021000       0.74994900
O        2.15074900      -2.84732700       0.59919600
H        3.00451500      -2.40895800       0.34086700
S        4.53422600      -0.04462900       0.04268900
O        4.29374800       0.32034100       1.44168000
O        4.28893500      -1.46330700      -0.27820900
O        3.90184000       0.90073200      -0.91602400
O        6.10821100       0.19792500      -0.25976300
H        6.61403400      -0.46868900       0.22528600
S       -1.01225600       1.64159300      -0.80565100
O       -1.41695500       0.23178200      -0.95048900
O       -0.69658700       1.96200000       0.62338200
O        0.08382000       2.06747100      -1.69518800
O       -2.25347500       2.52384500      -1.22123900
H       -3.09081700       2.06269900      -0.93323700
S       -4.75033000      -0.08903400       0.02891000
O       -4.15585200      -0.36073600       1.35474800
O       -4.47470900       1.27597500      -0.45774800
O       -4.53009700      -1.16995500      -0.94300400
O       -6.35527000      -0.13605700       0.23829300
H       -6.62389600       0.69111200       0.66061300
N       -2.11041700      -2.32184800      -1.36264900
H       -2.10768400      -3.06727800      -2.05198500
H       -1.61584600      -1.49122900      -1.71165600
H       -3.08136400      -2.00333000      -1.13145500
H       -1.57897300      -2.61068400      -0.52176800
N        1.85334800       0.14587700      -2.59069500
H        1.49416600      -0.77122300      -2.23750100
H        1.14683100       0.87744700      -2.36112000
H        2.72792200       0.36620700      -2.07079100
H        2.02856000       0.11131800      -3.59020000
C       -1.32384900      -0.30216400       3.50993000
N       -1.50850400      -0.32665400       2.04691700
H       -1.11281500       0.51477100       1.58876400
H       -1.04302400      -1.14763900       1.62082300
H       -1.79731700       0.59113500       3.91697800
H       -1.78344100      -1.18894600       3.94554000
H       -0.25752900      -0.29681600       3.73731800
H       -2.51628500      -0.35142500       1.78211500
C        2.52348000       3.31900900       1.47966500
N        2.06545800       2.01935400       0.94982100
H        2.50551600       1.81666800       0.04074300
H        2.38565600       1.23385500       1.52716300
H        2.21271500       4.10734100       0.79500600
H        2.07310500       3.48705500       2.45754200
H        3.60938300       3.29920100       1.56694000
H        1.03054100       1.97389000       0.83924900
50
4sa2am2ma-10
S        0.03168900       2.80992500      -1.46221300
O        0.27303300       4.24431800      -2.17050300
O       -0.82776900       3.18515400      -0.31242100
O        1.36071300       2.30679200      -1.07292600
O       -0.65261600       1.95946800      -2.44802900
H       -0.12917600       2.74305800       1.18946500
H        0.78379000       4.10344800      -2.97983200
S        3.24130200      -1.79093500      -0.66116200
O        2.85824200      -1.80206300      -2.07994500
O        4.31444600      -0.83899800      -0.32592100
O        2.09410900      -1.66262500       0.26374200
O        3.80233900      -3.27759100      -0.32815100
H        4.41669300      -3.53481400      -1.02941600
S       -2.72412500      -2.39683900      -0.44971800
O       -2.53027300      -2.52525100       1.01101400
O       -3.39247900      -1.13645900      -0.83154500
O       -1.52566600      -2.71905100      -1.23282300
O       -3.75175700      -3.57778400      -0.87108700
H       -4.58909100      -3.43117000      -0.41074200
S       -0.41493500       0.81217500       2.06901600
O       -1.73556700       1.00989700       2.67768600
O        0.28352300       2.25781600       1.94902900
O        0.56217800       0.05630300       2.88469400
O       -0.51059300       0.28026300       0.68824700
N        0.08023600      -2.55123100       1.87537300
H        0.26440700      -3.40398900       2.39585500
H       -0.90872400      -2.54861200       1.52826500
H        0.24139200      -1.71529900       2.46613200
H        0.74753800      -2.46508600       1.08838600
N        0.23223100      -0.67639800      -1.85788600
H        0.33105700      -0.39304000      -0.87251000
H       -0.09458500       0.15168800      -2.37301100
H        1.14217800      -1.02267200      -2.19595100
H       -0.46832900      -1.43828200      -1.86372000
C       -4.39417000       2.02446100      -0.03695700
N       -3.07684300       1.39744900       0.18841900
H       -2.30852000       1.97246800      -0.18973700
H       -2.85772400       1.26825700       1.19123100
H       -4.55505300       2.13354900      -1.10890000
H       -5.16799000       1.38409100       0.38499800
H       -4.41634000       3.00308100       0.44201500
H       -3.03630000       0.44859600      -0.23799400
C        3.47428100       2.17197700       1.81633600
N        2.79957700       1.08696400       1.07107600
H        2.21846700       0.51055200       1.69497300
H        2.16909900       1.48266000       0.35180700
H        4.15146700       1.73382700       2.54884500
H        4.03544900       2.78495900       1.11193000
H        2.71373700       2.76994500       2.31565700
H        3.47171000       0.45596000       0.59384000
