28
2msa1dma-01
S       -1.77789100      -1.00957600      -0.11452700
O       -1.01218700      -1.80019900      -1.08365500
O       -2.46068400       0.18811300      -0.68485100
O       -0.95538700      -0.59569400       1.07800300
C       -3.06979500      -2.05180900       0.53146800
H       -3.70658800      -2.34898100      -0.30206500
H       -2.60108300      -2.92387200       0.98753600
H       -3.63705800      -1.48428000       1.26884700
S        2.36409100      -0.27291600       0.06534400
O        3.74592600      -0.12947000       0.46547400
O        1.66048700       0.92936900      -0.42049800
O        1.56958700      -0.87357600       1.28324800
H        0.55765200      -0.80654200       1.16718400
C        2.21472300      -1.51628800      -1.19328100
H        2.72787800      -1.13954300      -2.07878200
H        2.69737200      -2.42024500      -0.82162100
H        1.15112400      -1.68220000      -1.38482800
N       -0.74430000       2.20247200      -0.10905500
C       -0.71338900       3.30754400      -1.08701600
C       -0.96894800       2.61717300       1.29184500
H       -1.47953400       1.49861900      -0.37728900
H        0.09166300       3.99731800      -0.82977600
H       -0.53672500       2.88884600      -2.07754300
H       -1.67166800       3.82887300      -1.07276800
H       -0.15762800       3.27389600       1.60946500
H       -1.92436400       3.13952400       1.36227500
H       -0.99062100       1.71450700       1.90247600
H        0.15299200       1.67858200      -0.16266500
28
2msa1dma-02
S       -1.75696900      -0.99662000      -0.08353500
O       -1.23669100      -0.63516800       1.25302600
O       -0.73278200      -1.67104100      -0.93249000
O       -2.38659500       0.16886300      -0.77107500
C       -3.04964800      -2.20104900       0.13096000
H       -3.44449600      -2.45442700      -0.85272900
H       -2.61638000      -3.07809200       0.61160300
H       -3.82392500      -1.75808200       0.75741800
S        2.37809200      -0.27046700      -0.02736100
O        1.68455000       1.02463100       0.09159000
O        3.80802900      -0.23839200      -0.23608100
O        1.74472400      -1.09822000      -1.20383700
H        0.74594700      -1.26278000      -1.09319200
C        1.98376500      -1.21802300       1.42437700
H        2.44773500      -0.70824600       2.26983700
H        0.89602000      -1.24509600       1.53432200
H        2.40771000      -2.21410100       1.29682500
N       -0.77484200       2.20661400      -0.03503200
C       -0.61192200       3.29475600      -1.01895300
C       -1.19442500       2.63918800       1.31485100
H       -1.46580100       1.49463100      -0.38781900
H        0.14164000       3.99793200      -0.66148800
H       -0.28733800       2.86140600      -1.96478900
H       -1.56685900       3.80471300      -1.15404400
H       -0.43924200       3.30796500       1.73082600
H       -2.15352200       3.15445200       1.24280800
H       -1.29559700       1.74363100       1.92859500
H        0.12353300       1.68858500       0.04489700
28
2msa1dma-03
S        2.15149200      -0.74621900      -0.15241200
O        0.95076900      -0.79371500       0.76925900
O        2.56095800       0.67893100      -0.33190600
O        1.96266200      -1.50212000      -1.38552600
H       -0.42214500       1.48292800      -0.47903100
C        3.46816700      -1.51263100       0.77263500
H        3.59059300      -0.97999800       1.71545400
H        3.19467800      -2.55342700       0.94676700
H        4.37584700      -1.45072600       0.17173100
S       -2.27884700      -0.50126400       0.05642700
O       -1.76091800       0.46666300      -0.92996000
O       -2.65171100       0.05316600       1.34961400
O       -1.29125500      -1.69924700       0.19859000
H       -0.31446100      -1.37678000       0.40131500
C       -3.66609400      -1.33328800      -0.67114000
H       -4.44033300      -0.58202800      -0.82873000
H       -3.34726400      -1.77325200      -1.61524200
H       -4.00585500      -2.09756200       0.02740200
N        0.30687600       2.12964400      -0.11644000
C        0.06775800       2.31292300       1.33275800
C        0.29085500       3.37512400      -0.90659400
H        1.22617300       1.62612300      -0.24249100
H       -0.93721400       2.70765000       1.48741300
H        0.16040500       1.33759200       1.81023800
H        0.81547600       3.00037300       1.73146400
H       -0.68210000       3.85805400      -0.80259100
H        1.07633600       4.04104100      -0.54617900
H        0.47125200       3.13003900      -1.95320400
