1a_2w_H.log
 OpenBabel02281910163D
Gaussian users/kemi/kmacke/programs/G09D/g09/g09 # opt freq 6-31++g(d,p) wb97xd
 11  8  0  0  0  0  0  0  0  0999 V2000
   -0.0047    1.0469    0.0024 N   0  0  0  0  0  0  0  0  0  0  0  0
   -0.0123    1.6416   -0.8260 H   0  0  0  0  0  0  0  0  0  0  0  0
    0.8578    0.4519   -0.0007 H   0  0  0  0  0  0  0  0  0  0  0  0
   -0.0001    1.6400    0.8320 H   0  0  0  0  0  0  0  0  0  0  0  0
   -0.8632    0.4455    0.0039 H   0  0  0  0  0  0  0  0  0  0  0  0
    2.2697   -0.5073    0.0066 O   0  0  0  0  0  0  0  0  0  0  0  0
    3.0006   -0.4634   -0.6184 H   0  0  0  0  0  0  0  0  0  0  0  0
    2.5138   -1.1593    0.6715 H   0  0  0  0  0  0  0  0  0  0  0  0
   -2.2671   -0.5181   -0.0091 O   0  0  0  0  0  0  0  0  0  0  0  0
   -2.3488   -1.3977   -0.3917 H   0  0  0  0  0  0  0  0  0  0  0  0
   -3.1359   -0.2832    0.3328 H   0  0  0  0  0  0  0  0  0  0  0  0
  1  5  1  0  0  0  0
  1  4  1  0  0  0  0
  2  1  1  0  0  0  0
  3  1  1  0  0  0  0
  6  8  1  0  0  0  0
  7  6  1  0  0  0  0
  9 11  1  0  0  0  0
 10  9  1  0  0  0  0
M  END
$$$$
