1a_5w_H.log
 OpenBabel02281910163D
Gaussian users/kemi/kmacke/programs/G09D/g09/g09 # opt freq 6-31++g(d,p) wb97xd
 20 14  0  0  0  0  0  0  0  0999 V2000
    0.8945   -0.0030    0.0037 N   0  0  0  0  0  0  0  0  0  0  0  0
    1.4996   -0.8377   -0.0571 H   0  0  0  0  0  0  0  0  0  0  0  0
    1.4757    0.8481    0.0667 H   0  0  0  0  0  0  0  0  0  0  0  0
    0.2697    0.0496   -0.8203 H   0  0  0  0  0  0  0  0  0  0  0  0
    0.2674   -0.0722    0.8247 H   0  0  0  0  0  0  0  0  0  0  0  0
    2.6014   -2.2861   -0.1410 O   0  0  0  0  0  0  0  0  0  0  0  0
    3.4567   -2.3373   -0.5774 H   0  0  0  0  0  0  0  0  0  0  0  0
    2.4223   -3.1620    0.2132 H   0  0  0  0  0  0  0  0  0  0  0  0
   -1.2422   -0.2109    1.7920 O   0  0  0  0  0  0  0  0  0  0  0  0
   -2.0943   -0.1337    1.3337 H   0  0  0  0  0  0  0  0  0  0  0  0
   -1.4145   -0.2099    2.7367 H   0  0  0  0  0  0  0  0  0  0  0  0
    2.5570    2.3171    0.1408 O   0  0  0  0  0  0  0  0  0  0  0  0
    2.5062    3.0897   -0.4295 H   0  0  0  0  0  0  0  0  0  0  0  0
    3.2224    2.5128    0.8069 H   0  0  0  0  0  0  0  0  0  0  0  0
   -3.4662    0.0125   -0.0011 O   0  0  0  0  0  0  0  0  0  0  0  0
   -4.0614   -0.7432   -0.0567 H   0  0  0  0  0  0  0  0  0  0  0  0
   -4.0282    0.7933    0.0547 H   0  0  0  0  0  0  0  0  0  0  0  0
   -1.2361    0.1659   -1.7961 O   0  0  0  0  0  0  0  0  0  0  0  0
   -1.4049    0.1270   -2.7405 H   0  0  0  0  0  0  0  0  0  0  0  0
   -2.0899    0.1084   -1.3381 H   0  0  0  0  0  0  0  0  0  0  0  0
  1  3  1  0  0  0  0
  1  5  1  0  0  0  0
  2  1  1  0  0  0  0
  4  1  1  0  0  0  0
  6  8  1  0  0  0  0
  7  6  1  0  0  0  0
  9 11  1  0  0  0  0
 10  9  1  0  0  0  0
 12 14  1  0  0  0  0
 13 12  1  0  0  0  0
 15 17  1  0  0  0  0
 16 15  1  0  0  0  0
 18 20  1  0  0  0  0
 19 18  1  0  0  0  0
M  END
$$$$
