4b_01.sdf 
 OpenBabel09072015433D
Besel et al., Gaussian 16, # opt freq 6-31++g(d,p) wb97xd
 27 23  0  0  0  0  0  0  0  0999 V2000
    4.5434   -0.1329   -0.3049 S   0  0  0  0  0  0  0  0  0  0  0  0
    4.2063   -0.4921    1.0731 O   0  0  0  0  0  0  0  0  0  0  0  0
    5.9152    0.0691   -0.6737 O   0  0  0  0  0  0  0  0  0  0  0  0
    3.9451   -1.2327   -1.2666 O   0  0  0  0  0  0  0  0  0  0  0  0
    3.7474    1.1793   -0.6814 O   0  0  0  0  0  0  0  0  0  0  0  0
    2.8063    1.1136   -0.3544 H   0  0  0  0  0  0  0  0  0  0  0  0
    3.0076   -1.4480   -0.9925 H   0  0  0  0  0  0  0  0  0  0  0  0
   -3.6144   -1.6013   -0.2142 S   0  0  0  0  0  0  0  0  0  0  0  0
   -3.6881   -0.5930    0.8458 O   0  0  0  0  0  0  0  0  0  0  0  0
   -4.7007   -2.5221   -0.3945 O   0  0  0  0  0  0  0  0  0  0  0  0
   -3.3937   -0.8529   -1.5870 O   0  0  0  0  0  0  0  0  0  0  0  0
   -2.3071   -2.4501   -0.0119 O   0  0  0  0  0  0  0  0  0  0  0  0
   -1.5565   -1.8753    0.3157 H   0  0  0  0  0  0  0  0  0  0  0  0
   -2.8676   -0.0199   -1.4492 H   0  0  0  0  0  0  0  0  0  0  0  0
   -1.9532    2.3713   -0.1025 S   0  0  0  0  0  0  0  0  0  0  0  0
   -1.9661    1.3281   -1.1322 O   0  0  0  0  0  0  0  0  0  0  0  0
   -2.6543    3.6040   -0.3400 O   0  0  0  0  0  0  0  0  0  0  0  0
   -2.4457    1.7334    1.2537 O   0  0  0  0  0  0  0  0  0  0  0  0
   -0.4676    2.7483    0.2175 O   0  0  0  0  0  0  0  0  0  0  0  0
    0.1349    1.9481    0.2445 H   0  0  0  0  0  0  0  0  0  0  0  0
   -2.8208    0.8239    1.1130 H   0  0  0  0  0  0  0  0  0  0  0  0
    0.9168   -0.6324    0.5854 S   0  0  0  0  0  0  0  0  0  0  0  0
    1.4624   -1.5846   -0.3967 O   0  0  0  0  0  0  0  0  0  0  0  0
    1.2635    0.7803    0.2161 O   0  0  0  0  0  0  0  0  0  0  0  0
   -0.5076   -0.7834    0.8834 O   0  0  0  0  0  0  0  0  0  0  0  0
    1.6415   -0.9077    1.9784 O   0  0  0  0  0  0  0  0  0  0  0  0
    2.6103   -0.8089    1.8293 H   0  0  0  0  0  0  0  0  0  0  0  0
  1  2  2  0  0  0  0
  3  1  2  0  0  0  0
  4  7  1  0  0  0  0
  4  1  1  0  0  0  0
  5  6  1  0  0  0  0
  5  1  1  0  0  0  0
  8 12  1  0  0  0  0
  8  9  2  0  0  0  0
 10  8  2  0  0  0  0
 11 14  1  0  0  0  0
 11  8  1  0  0  0  0
 12 13  1  0  0  0  0
 15 19  1  0  0  0  0
 15 18  1  0  0  0  0
 16 15  2  0  0  0  0
 17 15  2  0  0  0  0
 19 20  1  0  0  0  0
 21 18  1  0  0  0  0
 22 25  1  0  0  0  0
 22 26  1  0  0  0  0
 23 22  2  0  0  0  0
 24 22  2  0  0  0  0
 27 26  1  0  0  0  0
M  RAD  1  25   2
M  END
$$$$
4b_02.sdf 
 OpenBabel09072015433D
Besel et al., Gaussian 16, # opt freq 6-31++g(d,p) wb97xd
 27 23  0  0  0  0  0  0  0  0999 V2000
   -0.1535    2.7146    0.3502 S   0  0  0  0  0  0  0  0  0  0  0  0
   -0.8715    1.7163   -0.4474 O   0  0  0  0  0  0  0  0  0  0  0  0
   -0.6827    4.0464    0.4554 O   0  0  0  0  0  0  0  0  0  0  0  0
    1.3049    2.8476   -0.2287 O   0  0  0  0  0  0  0  0  0  0  0  0
    0.0541    2.1347    1.7911 O   0  0  0  0  0  0  0  0  0  0  0  0
    0.0357    1.1265    1.8007 H   0  0  0  0  0  0  0  0  0  0  0  0
    1.8120    1.9931   -0.1757 H   0  0  0  0  0  0  0  0  0  0  0  0
   -3.4048   -0.6346   -0.6774 S   0  0  0  0  0  0  0  0  0  0  0  0
   -3.0720   -1.0602    0.6837 O   0  0  0  0  0  0  0  0  0  0  0  0
   -4.6509   -1.0489   -1.2599 O   0  0  0  0  0  0  0  0  0  0  0  0
   -2.2336   -1.0874   -1.6310 O   0  0  0  0  0  0  0  0  0  0  0  0
   -3.3672    0.9377   -0.7441 O   0  0  0  0  0  0  0  0  0  0  0  0
   -2.4561    1.2922   -0.5480 H   0  0  0  0  0  0  0  0  0  0  0  0
   -1.3586   -1.0992   -1.1416 H   0  0  0  0  0  0  0  0  0  0  0  0
    3.3237   -0.3756   -0.7715 S   0  0  0  0  0  0  0  0  0  0  0  0
    2.7070    0.6265    0.1029 O   0  0  0  0  0  0  0  0  0  0  0  0
    4.5036   -0.0490   -1.5206 O   0  0  0  0  0  0  0  0  0  0  0  0
    3.6486   -1.6372    0.1103 O   0  0  0  0  0  0  0  0  0  0  0  0
    2.2236   -0.8749   -1.7834 O   0  0  0  0  0  0  0  0  0  0  0  0
    1.3540   -0.9906   -1.2976 H   0  0  0  0  0  0  0  0  0  0  0  0
    2.8467   -1.9048    0.6494 H   0  0  0  0  0  0  0  0  0  0  0  0
    0.1899   -1.5793    1.1048 S   0  0  0  0  0  0  0  0  0  0  0  0
    0.0513   -1.2046   -0.3453 O   0  0  0  0  0  0  0  0  0  0  0  0
    1.4248   -2.3335    1.3489 O   0  0  0  0  0  0  0  0  0  0  0  0
   -0.0244   -0.4306    1.9950 O   0  0  0  0  0  0  0  0  0  0  0  0
   -0.9762   -2.6162    1.3950 O   0  0  0  0  0  0  0  0  0  0  0  0
   -1.8352   -2.1516    1.2390 H   0  0  0  0  0  0  0  0  0  0  0  0
  1  3  2  0  0  0  0
  1  5  1  0  0  0  0
  2  1  2  0  0  0  0
  4  7  1  0  0  0  0
  4  1  1  0  0  0  0
  5  6  1  0  0  0  0
  8  9  2  0  0  0  0
 10  8  2  0  0  0  0
 11 14  1  0  0  0  0
 11  8  1  0  0  0  0
 12  8  1  0  0  0  0
 12 13  1  0  0  0  0
 15 16  2  0  0  0  0
 15 18  1  0  0  0  0
 17 15  2  0  0  0  0
 18 21  1  0  0  0  0
 19 20  1  0  0  0  0
 19 15  1  0  0  0  0
 22 24  2  0  0  0  0
 22 26  1  0  0  0  0
 22 25  1  0  0  0  0
 23 22  2  0  0  0  0
 27 26  1  0  0  0  0
M  RAD  1  25   2
M  END
$$$$
