5sa_1b_5a.sdf 
 OpenBabel09072015433D
Besel et al., Gaussian 16, # opt freq 6-31++g(d,p) wb97xd
 61 50  0  0  0  0  0  0  0  0999 V2000
    2.0164    0.1098   -2.0416 N   0  0  0  0  0  0  0  0  0  0  0  0
    1.6764   -0.8652   -1.9207 H   0  0  0  0  0  0  0  0  0  0  0  0
    1.6864    0.4635   -2.9392 H   0  0  0  0  0  0  0  0  0  0  0  0
    1.6000    0.7037   -1.3065 H   0  0  0  0  0  0  0  0  0  0  0  0
    3.0414    0.1021   -1.9308 H   0  0  0  0  0  0  0  0  0  0  0  0
   -1.7782   -3.1481   -1.7919 N   0  0  0  0  0  0  0  0  0  0  0  0
   -0.9585   -3.6033   -1.3415 H   0  0  0  0  0  0  0  0  0  0  0  0
   -2.3581   -3.8361   -2.2630 H   0  0  0  0  0  0  0  0  0  0  0  0
   -2.3314   -2.6591   -1.0586 H   0  0  0  0  0  0  0  0  0  0  0  0
   -1.4859   -2.4151   -2.4742 H   0  0  0  0  0  0  0  0  0  0  0  0
   -2.7850    2.5794   -0.2610 N   0  0  0  0  0  0  0  0  0  0  0  0
   -1.9777    3.2186   -0.4119 H   0  0  0  0  0  0  0  0  0  0  0  0
   -2.6258    2.0453    0.6098 H   0  0  0  0  0  0  0  0  0  0  0  0
   -3.6534    3.0959   -0.1572 H   0  0  0  0  0  0  0  0  0  0  0  0
   -2.8754    1.9433   -1.0769 H   0  0  0  0  0  0  0  0  0  0  0  0
   -1.1235   -2.2952    2.2722 N   0  0  0  0  0  0  0  0  0  0  0  0
   -1.7931   -2.0178    1.5248 H   0  0  0  0  0  0  0  0  0  0  0  0
   -0.1911   -2.3485    1.8221 H   0  0  0  0  0  0  0  0  0  0  0  0
   -1.1066   -1.5420    2.9887 H   0  0  0  0  0  0  0  0  0  0  0  0
   -1.3910   -3.1884    2.6730 H   0  0  0  0  0  0  0  0  0  0  0  0
    2.5618    2.2555    1.8994 N   0  0  0  0  0  0  0  0  0  0  0  0
    3.3892    2.3257    2.4866 H   0  0  0  0  0  0  0  0  0  0  0  0
    2.5480    3.0006    1.1821 H   0  0  0  0  0  0  0  0  0  0  0  0
    2.5902    1.3287    1.4183 H   0  0  0  0  0  0  0  0  0  0  0  0
    1.6850    2.3119    2.4514 H   0  0  0  0  0  0  0  0  0  0  0  0
   -1.4503    0.3704   -2.7862 S   0  0  0  0  0  0  0  0  0  0  0  0
   -2.6833    1.1658   -2.6903 O   0  0  0  0  0  0  0  0  0  0  0  0
   -1.6173   -0.9381   -3.4472 O   0  0  0  0  0  0  0  0  0  0  0  0
   -1.0022    0.0507   -1.2658 O   0  0  0  0  0  0  0  0  0  0  0  0
   -0.2900    1.1328   -3.3036 O   0  0  0  0  0  0  0  0  0  0  0  0
    0.4290    2.6082   -2.7212 H   0  0  0  0  0  0  0  0  0  0  0  0
   -1.7131   -0.4177   -0.7554 H   0  0  0  0  0  0  0  0  0  0  0  0
   -0.8713    1.0961    2.7607 S   0  0  0  0  0  0  0  0  0  0  0  0
   -0.0275    2.2574    3.0758 O   0  0  0  0  0  0  0  0  0  0  0  0
   -0.9096    0.0381    3.7828 O   0  0  0  0  0  0  0  0  0  0  0  0
   -0.1938    0.3463    1.5133 O   0  0  0  0  0  0  0  0  0  0  0  0
   -2.2412    1.4776    2.3040 O   0  0  0  0  0  0  0  0  0  0  0  0
   -3.3414    0.1115    2.3225 H   0  0  0  0  0  0  0  0  0  0  0  0
    0.0275    0.9859    0.7845 H   0  0  0  0  0  0  0  0  0  0  0  0
    4.3321   -0.4478    0.4595 S   0  0  0  0  0  0  0  0  0  0  0  0
    4.6021   -0.3687   -0.9840 O   0  0  0  0  0  0  0  0  0  0  0  0
    5.1336    0.4002    1.3291 O   0  0  0  0  0  0  0  0  0  0  0  0
    2.8490   -0.2346    0.7128 O   0  0  0  0  0  0  0  0  0  0  0  0
    4.6227   -1.9459    0.9365 O   0  0  0  0  0  0  0  0  0  0  0  0
    4.0600   -2.5905    0.4422 H   0  0  0  0  0  0  0  0  0  0  0  0
    1.8090   -1.3994    0.7526 H   0  0  0  0  0  0  0  0  0  0  0  0
   -4.0935   -0.9749    0.6301 S   0  0  0  0  0  0  0  0  0  0  0  0
   -4.4331    0.3146    0.0376 O   0  0  0  0  0  0  0  0  0  0  0  0
   -5.0558   -2.0578    0.5530 O   0  0  0  0  0  0  0  0  0  0  0  0
   -2.7127   -1.4374    0.1493 O   0  0  0  0  0  0  0  0  0  0  0  0
   -3.8487   -0.7320    2.2041 O   0  0  0  0  0  0  0  0  0  0  0  0
    0.8047    3.4049   -0.7722 S   0  0  0  0  0  0  0  0  0  0  0  0
    1.0739    3.2613   -2.3433 O   0  0  0  0  0  0  0  0  0  0  0  0
    0.7764    1.9955   -0.2709 O   0  0  0  0  0  0  0  0  0  0  0  0
    1.9608    4.1350   -0.2459 O   0  0  0  0  0  0  0  0  0  0  0  0
   -0.4934    4.0788   -0.6073 O   0  0  0  0  0  0  0  0  0  0  0  0
    1.4352   -3.2329   -0.4272 S   0  0  0  0  0  0  0  0  0  0  0  0
    2.7990   -3.7250   -0.1938 O   0  0  0  0  0  0  0  0  0  0  0  0
    1.2655   -2.5130   -1.7078 O   0  0  0  0  0  0  0  0  0  0  0  0
    0.3454   -4.2098   -0.2170 O   0  0  0  0  0  0  0  0  0  0  0  0
    1.1442   -2.1574    0.7440 O   0  0  0  0  0  0  0  0  0  0  0  0
  1  5  1  0  0  0  0
  1  2  1  0  0  0  0
  1  4  1  0  0  0  0
  3  1  1  0  0  0  0
  6  7  1  0  0  0  0
  6  9  1  0  0  0  0
  8  6  1  0  0  0  0
 10  6  1  0  0  0  0
 11 14  1  0  0  0  0
 11 13  1  0  0  0  0
 12 11  1  0  0  0  0
 15 11  1  0  0  0  0
 16 20  1  0  0  0  0
 16 19  1  0  0  0  0
 17 16  1  0  0  0  0
 18 16  1  0  0  0  0
 21 25  1  0  0  0  0
 21 22  1  0  0  0  0
 23 21  1  0  0  0  0
 24 21  1  0  0  0  0
 26 27  1  0  0  0  0
 26 29  1  0  0  0  0
 28 26  2  0  0  0  0
 29 32  1  0  0  0  0
 30 26  2  0  0  0  0
 31 53  1  0  0  0  0
 33 34  2  0  0  0  0
 33 35  1  0  0  0  0
 36 33  1  0  0  0  0
 37 33  2  0  0  0  0
 39 36  1  0  0  0  0
 40 43  2  0  0  0  0
 40 44  1  0  0  0  0
 40 42  1  0  0  0  0
 41 40  2  0  0  0  0
 45 44  1  0  0  0  0
 47 51  1  0  0  0  0
 48 47  2  0  0  0  0
 49 47  1  0  0  0  0
 50 47  2  0  0  0  0
 51 38  1  0  0  0  0
 52 56  2  0  0  0  0
 52 54  2  0  0  0  0
 52 55  1  0  0  0  0
 53 52  1  0  0  0  0
 57 60  2  0  0  0  0
 57 58  1  0  0  0  0
 57 61  1  0  0  0  0
 59 57  2  0  0  0  0
 61 46  1  0  0  0  0
M  RAD  6  27   2  35   2  42   2  49   2  55   2  58   2
M  END
$$$$
