1goaw_1a.log
 OpenBabel02281910293D
Gaussian groups/kemi/kmacke/programs/G09D/g09/g09 # opt freq wb97xd/6-31++g(d,p)
 14 12  0  0  0  0  0  0  0  0999 V2000
    0.0606    0.0772    0.1320 C   0  0  0  0  0  0  0  0  0  0  0  0
    0.4281    1.1069   -0.4078 O   0  0  0  0  0  0  0  0  0  0  0  0
    0.8459   -0.8755    0.5744 O   0  0  0  0  0  0  0  0  0  0  0  0
    1.8071   -0.6395    0.3633 H   0  0  0  0  0  0  0  0  0  0  0  0
   -1.4338   -0.2041    0.3362 C   0  0  0  0  0  0  0  0  0  0  0  0
   -1.6098   -0.6763    1.3089 H   0  0  0  0  0  0  0  0  0  0  0  0
   -2.1476    0.9838    0.3178 O   0  0  0  0  0  0  0  0  0  0  0  0
   -1.7854   -1.0701   -0.7159 O   0  0  0  0  0  0  0  0  0  0  0  0
   -2.7374   -1.2068   -0.6725 H   0  0  0  0  0  0  0  0  0  0  0  0
   -1.6886    1.5778   -0.2953 H   0  0  0  0  0  0  0  0  0  0  0  0
    3.2936   -0.0038   -0.1257 N   0  0  0  0  0  0  0  0  0  0  0  0
    2.9436    0.8698   -0.5129 H   0  0  0  0  0  0  0  0  0  0  0  0
    3.7690   -0.5112   -0.8646 H   0  0  0  0  0  0  0  0  0  0  0  0
    3.9731    0.2137    0.5955 H   0  0  0  0  0  0  0  0  0  0  0  0
  1  5  1  0  0  0  0
  1  3  1  0  0  0  0
  2  1  2  0  0  0  0
  4  3  1  0  0  0  0
  5  6  1  0  0  0  0
  7  5  1  0  0  0  0
  8  9  1  0  0  0  0
  8  5  1  0  0  0  0
 10  7  1  0  0  0  0
 11 14  1  0  0  0  0
 12 11  1  0  0  0  0
 13 11  1  0  0  0  0
M  END
$$$$
