1sa_1a_1goaw_1w.log
 OpenBabel02281910293D
Gaussian groups/kemi/kmacke/programs/G09D/g09/g09 # opt freq wb97xd/6-31++g(d,p)
 24 20  0  0  0  0  0  0  0  0999 V2000
   -1.6277   -0.5014   -0.6344 C   0  0  0  0  0  0  0  0  0  0  0  0
   -1.2513   -1.6093   -0.2855 O   0  0  0  0  0  0  0  0  0  0  0  0
   -0.9221    0.4140   -1.2331 O   0  0  0  0  0  0  0  0  0  0  0  0
    0.0770    0.1825   -1.2577 H   0  0  0  0  0  0  0  0  0  0  0  0
   -3.0480   -0.0332   -0.2991 C   0  0  0  0  0  0  0  0  0  0  0  0
   -3.5440    0.3960   -1.1751 H   0  0  0  0  0  0  0  0  0  0  0  0
   -3.8159   -1.0676    0.1770 O   0  0  0  0  0  0  0  0  0  0  0  0
   -2.8500    0.9867    0.6828 O   0  0  0  0  0  0  0  0  0  0  0  0
   -3.7016    1.1463    1.1042 H   0  0  0  0  0  0  0  0  0  0  0  0
   -3.2171   -1.7418    0.5346 H   0  0  0  0  0  0  0  0  0  0  0  0
    2.0074   -0.6751    0.2007 S   0  0  0  0  0  0  0  0  0  0  0  0
    1.5736    0.0772   -1.0418 O   0  0  0  0  0  0  0  0  0  0  0  0
    3.4373   -0.7433    0.3652 O   0  0  0  0  0  0  0  0  0  0  0  0
    1.5029   -2.1746   -0.0357 O   0  0  0  0  0  0  0  0  0  0  0  0
    1.2286   -0.1655    1.3635 O   0  0  0  0  0  0  0  0  0  0  0  0
    0.5256   -2.1587   -0.1177 H   0  0  0  0  0  0  0  0  0  0  0  0
    0.3659    1.1724    1.3011 H   0  0  0  0  0  0  0  0  0  0  0  0
   -0.1559    2.0899    1.1600 N   0  0  0  0  0  0  0  0  0  0  0  0
   -0.1234    2.6388    2.0145 H   0  0  0  0  0  0  0  0  0  0  0  0
   -1.1312    1.8883    0.9030 H   0  0  0  0  0  0  0  0  0  0  0  0
    0.3507    2.5808    0.3929 H   0  0  0  0  0  0  0  0  0  0  0  0
    1.5160    2.7934   -0.9095 O   0  0  0  0  0  0  0  0  0  0  0  0
    2.3084    3.3260   -1.0055 H   0  0  0  0  0  0  0  0  0  0  0  0
    1.7654    1.8623   -1.0872 H   0  0  0  0  0  0  0  0  0  0  0  0
  1  5  1  0  0  0  0
  1  2  2  0  0  0  0
  3  1  1  0  0  0  0
  4  3  1  0  0  0  0
  5  7  1  0  0  0  0
  5  8  1  0  0  0  0
  6  5  1  0  0  0  0
  7 10  1  0  0  0  0
  8  9  1  0  0  0  0
 11 13  2  0  0  0  0
 11 15  1  0  0  0  0
 12 11  2  0  0  0  0
 14 11  1  0  0  0  0
 16 14  1  0  0  0  0
 18 17  1  0  0  0  0
 18 19  1  0  0  0  0
 20 18  1  0  0  0  0
 21 18  1  0  0  0  0
 23 22  1  0  0  0  0
 24 22  1  0  0  0  0
M  RAD  1  15   2
M  END
$$$$
