1sa_1a_1goaw_3w.log
 OpenBabel02281910293D
Gaussian groups/kemi/kmacke/programs/G09D/g09/g09 # opt freq wb97xd/6-31++g(d,p)
 30 24  0  0  0  0  0  0  0  0999 V2000
   -2.1689    0.1705    0.5009 C   0  0  0  0  0  0  0  0  0  0  0  0
   -2.2330    1.3232    0.1041 O   0  0  0  0  0  0  0  0  0  0  0  0
   -1.1955   -0.3904    1.1523 O   0  0  0  0  0  0  0  0  0  0  0  0
   -0.3369    0.1647    1.2130 H   0  0  0  0  0  0  0  0  0  0  0  0
   -3.3170   -0.8038    0.2013 C   0  0  0  0  0  0  0  0  0  0  0  0
   -3.6172   -1.3453    1.1040 H   0  0  0  0  0  0  0  0  0  0  0  0
   -4.4143   -0.1405   -0.2951 O   0  0  0  0  0  0  0  0  0  0  0  0
   -2.7768   -1.7232   -0.7484 O   0  0  0  0  0  0  0  0  0  0  0  0
   -3.5228   -2.1779   -1.1546 H   0  0  0  0  0  0  0  0  0  0  0  0
   -4.1038    0.6927   -0.6821 H   0  0  0  0  0  0  0  0  0  0  0  0
    1.7662    0.8886   -0.0736 S   0  0  0  0  0  0  0  0  0  0  0  0
    1.1159    0.6157    1.2546 O   0  0  0  0  0  0  0  0  0  0  0  0
    3.1086    0.3121   -0.1650 O   0  0  0  0  0  0  0  0  0  0  0  0
    1.9684    2.4472   -0.1733 O   0  0  0  0  0  0  0  0  0  0  0  0
    0.8480    0.4789   -1.1671 O   0  0  0  0  0  0  0  0  0  0  0  0
    1.0715    2.8956   -0.1422 H   0  0  0  0  0  0  0  0  0  0  0  0
    0.3794   -1.1564   -1.0751 H   0  0  0  0  0  0  0  0  0  0  0  0
    0.1286   -2.1380   -0.8043 N   0  0  0  0  0  0  0  0  0  0  0  0
    0.6083   -2.7849   -1.4255 H   0  0  0  0  0  0  0  0  0  0  0  0
   -0.8925   -2.2392   -0.8250 H   0  0  0  0  0  0  0  0  0  0  0  0
    0.5041   -2.2757    0.1683 H   0  0  0  0  0  0  0  0  0  0  0  0
    1.5000   -2.2643    1.5733 O   0  0  0  0  0  0  0  0  0  0  0  0
    1.5451   -1.3292    1.8297 H   0  0  0  0  0  0  0  0  0  0  0  0
    2.3336   -2.4448    1.1092 H   0  0  0  0  0  0  0  0  0  0  0  0
    3.0905   -2.3610   -0.7415 O   0  0  0  0  0  0  0  0  0  0  0  0
    3.9186   -2.7237   -1.0639 H   0  0  0  0  0  0  0  0  0  0  0  0
    3.2215   -1.3914   -0.6702 H   0  0  0  0  0  0  0  0  0  0  0  0
   -0.4580    3.4651   -0.1452 O   0  0  0  0  0  0  0  0  0  0  0  0
   -0.7083    3.8364   -0.9956 H   0  0  0  0  0  0  0  0  0  0  0  0
   -1.0755    2.7262    0.0150 H   0  0  0  0  0  0  0  0  0  0  0  0
  1  3  1  0  0  0  0
  2  1  2  0  0  0  0
  3  4  1  0  0  0  0
  5  1  1  0  0  0  0
  5  6  1  0  0  0  0
  7  5  1  0  0  0  0
  8  5  1  0  0  0  0
  9  8  1  0  0  0  0
 10  7  1  0  0  0  0
 11 12  1  0  0  0  0
 13 11  2  0  0  0  0
 14 16  1  0  0  0  0
 14 11  1  0  0  0  0
 15 11  2  0  0  0  0
 17 18  1  0  0  0  0
 18 21  1  0  0  0  0
 19 18  1  0  0  0  0
 20 18  1  0  0  0  0
 22 23  1  0  0  0  0
 24 22  1  0  0  0  0
 25 27  1  0  0  0  0
 26 25  1  0  0  0  0
 28 30  1  0  0  0  0
 29 28  1  0  0  0  0
M  RAD  1  12   2
M  END
$$$$
