1sa_1goaw.log
 OpenBabel02281910293D
Gaussian groups/kemi/kmacke/programs/G09D/g09/g09 # opt freq wb97xd/6-31++g(d,p)
 17 15  0  0  0  0  0  0  0  0999 V2000
    2.1380    0.6297   -0.0313 C   0  0  0  0  0  0  0  0  0  0  0  0
    1.1945    1.3919   -0.0030 O   0  0  0  0  0  0  0  0  0  0  0  0
    3.3982    1.0387   -0.0682 O   0  0  0  0  0  0  0  0  0  0  0  0
    3.4103    2.0080   -0.0569 H   0  0  0  0  0  0  0  0  0  0  0  0
    2.0276   -0.9027    0.0155 C   0  0  0  0  0  0  0  0  0  0  0  0
    3.0254   -1.3364   -0.0860 H   0  0  0  0  0  0  0  0  0  0  0  0
    1.5085   -1.3366    1.2080 O   0  0  0  0  0  0  0  0  0  0  0  0
    1.2231   -1.2461   -1.1024 O   0  0  0  0  0  0  0  0  0  0  0  0
    1.2008   -2.2088   -1.1658 H   0  0  0  0  0  0  0  0  0  0  0  0
    0.5783   -1.0411    1.2906 H   0  0  0  0  0  0  0  0  0  0  0  0
   -1.9384    0.0446    0.0830 S   0  0  0  0  0  0  0  0  0  0  0  0
   -1.1765   -0.6550    1.1116 O   0  0  0  0  0  0  0  0  0  0  0  0
   -3.3663   -0.0207    0.0502 O   0  0  0  0  0  0  0  0  0  0  0  0
   -1.3932   -0.4355   -1.3309 O   0  0  0  0  0  0  0  0  0  0  0  0
   -1.5383    1.5788    0.1220 O   0  0  0  0  0  0  0  0  0  0  0  0
   -0.4355   -0.6665   -1.2663 H   0  0  0  0  0  0  0  0  0  0  0  0
   -0.5590    1.6457    0.1517 H   0  0  0  0  0  0  0  0  0  0  0  0
  1  2  2  0  0  0  0
  1  5  1  0  0  0  0
  3  4  1  0  0  0  0
  3  1  1  0  0  0  0
  5  7  1  0  0  0  0
  6  5  1  0  0  0  0
  7 10  1  0  0  0  0
  8  5  1  0  0  0  0
  9  8  1  0  0  0  0
 11 15  1  0  0  0  0
 11 12  2  0  0  0  0
 13 11  2  0  0  0  0
 14 16  1  0  0  0  0
 14 11  1  0  0  0  0
 15 17  1  0  0  0  0
M  END
$$$$
