1sa_1a_1goaw.log
 OpenBabel02281910293D
Gaussian groups/kemi/kmacke/programs/G09D/g09/g09 # opt freq wb97xd/6-31++g(d,p)
 21 18  0  0  0  0  0  0  0  0999 V2000
    1.5291   -0.5672    0.4567 C   0  0  0  0  0  0  0  0  0  0  0  0
    0.9426   -1.2663   -0.3571 O   0  0  0  0  0  0  0  0  0  0  0  0
    1.0050    0.0033    1.5055 O   0  0  0  0  0  0  0  0  0  0  0  0
    0.0029   -0.0781    1.4971 H   0  0  0  0  0  0  0  0  0  0  0  0
    3.0049   -0.2209    0.2383 C   0  0  0  0  0  0  0  0  0  0  0  0
    3.5550   -0.2123    1.1838 H   0  0  0  0  0  0  0  0  0  0  0  0
    3.6137   -1.1299   -0.5964 O   0  0  0  0  0  0  0  0  0  0  0  0
    2.9481    1.0846   -0.3164 O   0  0  0  0  0  0  0  0  0  0  0  0
    3.8386    1.3283   -0.5916 H   0  0  0  0  0  0  0  0  0  0  0  0
    2.9560   -1.4347   -1.2392 H   0  0  0  0  0  0  0  0  0  0  0  0
   -2.2593   -0.1643   -0.0203 S   0  0  0  0  0  0  0  0  0  0  0  0
   -1.5719    0.0905    1.2622 O   0  0  0  0  0  0  0  0  0  0  0  0
   -3.6918   -0.1948   -0.0294 O   0  0  0  0  0  0  0  0  0  0  0  0
   -1.7624   -1.5688   -0.5618 O   0  0  0  0  0  0  0  0  0  0  0  0
   -1.7060    0.8451   -1.0625 O   0  0  0  0  0  0  0  0  0  0  0  0
   -0.7759   -1.5896   -0.5361 H   0  0  0  0  0  0  0  0  0  0  0  0
   -0.9147    1.4779   -0.6988 H   0  0  0  0  0  0  0  0  0  0  0  0
    0.1329    2.4224   -0.2579 N   0  0  0  0  0  0  0  0  0  0  0  0
    0.0070    3.3158   -0.7248 H   0  0  0  0  0  0  0  0  0  0  0  0
    1.0902    2.1074   -0.4249 H   0  0  0  0  0  0  0  0  0  0  0  0
    0.0373    2.5775    0.7425 H   0  0  0  0  0  0  0  0  0  0  0  0
  1  3  1  0  0  0  0
  2  1  2  0  0  0  0
  4  3  1  0  0  0  0
  5  1  1  0  0  0  0
  5  6  1  0  0  0  0
  7  5  1  0  0  0  0
  8  5  1  0  0  0  0
  9  8  1  0  0  0  0
 10  7  1  0  0  0  0
 11 12  2  0  0  0  0
 13 11  2  0  0  0  0
 14 16  1  0  0  0  0
 14 11  1  0  0  0  0
 15 17  1  0  0  0  0
 15 11  1  0  0  0  0
 18 21  1  0  0  0  0
 19 18  1  0  0  0  0
 20 18  1  0  0  0  0
M  END
$$$$
