1sa_1a_1goaw_5w.log
 OpenBabel02281910293D
Gaussian groups/kemi/kmacke/programs/G09D/g09/g09 # opt freq wb97xd/6-31++g(d,p)
 36 28  0  0  0  0  0  0  0  0999 V2000
    2.2129   -1.0368    0.5454 C   0  0  0  0  0  0  0  0  0  0  0  0
    2.2199   -1.5378   -0.5723 O   0  0  0  0  0  0  0  0  0  0  0  0
    1.3268   -1.2559    1.4814 O   0  0  0  0  0  0  0  0  0  0  0  0
    0.5238   -1.7194    1.1097 H   0  0  0  0  0  0  0  0  0  0  0  0
    3.2453    0.0327    0.9277 C   0  0  0  0  0  0  0  0  0  0  0  0
    3.5654   -0.0870    1.9643 H   0  0  0  0  0  0  0  0  0  0  0  0
    4.3416   -0.0489    0.0924 O   0  0  0  0  0  0  0  0  0  0  0  0
    2.5888    1.2797    0.8606 O   0  0  0  0  0  0  0  0  0  0  0  0
    2.4302    1.5066   -0.0797 H   0  0  0  0  0  0  0  0  0  0  0  0
    4.0637   -0.5126   -0.7113 H   0  0  0  0  0  0  0  0  0  0  0  0
   -0.9993   -1.1345   -0.9043 S   0  0  0  0  0  0  0  0  0  0  0  0
   -0.9005   -2.0310    0.2846 O   0  0  0  0  0  0  0  0  0  0  0  0
   -2.3460   -1.0152   -1.4569 O   0  0  0  0  0  0  0  0  0  0  0  0
   -0.1304   -1.8430   -2.0489 O   0  0  0  0  0  0  0  0  0  0  0  0
   -0.3491    0.1678   -0.6302 O   0  0  0  0  0  0  0  0  0  0  0  0
    0.7684   -1.9720   -1.6747 H   0  0  0  0  0  0  0  0  0  0  0  0
   -0.0528    2.9934   -1.2986 H   0  0  0  0  0  0  0  0  0  0  0  0
   -0.1259    2.0050    1.6567 N   0  0  0  0  0  0  0  0  0  0  0  0
    0.0361    2.6254    2.4449 H   0  0  0  0  0  0  0  0  0  0  0  0
    0.7087    1.4251    1.5017 H   0  0  0  0  0  0  0  0  0  0  0  0
   -1.0037    1.4416    1.8131 H   0  0  0  0  0  0  0  0  0  0  0  0
   -2.6171    1.0027    1.8404 O   0  0  0  0  0  0  0  0  0  0  0  0
   -2.8347    0.0624    2.0085 H   0  0  0  0  0  0  0  0  0  0  0  0
   -2.9571    1.2142    0.9546 H   0  0  0  0  0  0  0  0  0  0  0  0
   -3.0786    1.6053   -0.9286 O   0  0  0  0  0  0  0  0  0  0  0  0
   -3.9060    1.8827   -1.3298 H   0  0  0  0  0  0  0  0  0  0  0  0
   -2.8879    0.7023   -1.2581 H   0  0  0  0  0  0  0  0  0  0  0  0
   -0.7680    3.2570   -0.7007 O   0  0  0  0  0  0  0  0  0  0  0  0
   -1.5453    2.7205   -0.9445 H   0  0  0  0  0  0  0  0  0  0  0  0
   -0.3037    2.5665    0.7859 H   0  0  0  0  0  0  0  0  0  0  0  0
    1.5100    1.7323   -1.6675 O   0  0  0  0  0  0  0  0  0  0  0  0
    1.9212    1.5786   -2.5217 H   0  0  0  0  0  0  0  0  0  0  0  0
    0.8568    1.0144   -1.5150 H   0  0  0  0  0  0  0  0  0  0  0  0
   -2.9494   -1.7059    2.1224 O   0  0  0  0  0  0  0  0  0  0  0  0
   -3.7622   -2.1672    1.9030 H   0  0  0  0  0  0  0  0  0  0  0  0
   -2.2845   -1.9901    1.4685 H   0  0  0  0  0  0  0  0  0  0  0  0
  1  5  1  0  0  0  0
  1  3  1  0  0  0  0
  2  1  2  0  0  0  0
  4  3  1  0  0  0  0
  5  6  1  0  0  0  0
  7  5  1  0  0  0  0
  8  5  1  0  0  0  0
  9  8  1  0  0  0  0
 10  7  1  0  0  0  0
 11 15  2  0  0  0  0
 11 12  1  0  0  0  0
 13 11  2  0  0  0  0
 14 16  1  0  0  0  0
 14 11  1  0  0  0  0
 17 28  1  0  0  0  0
 18 21  1  0  0  0  0
 18 19  1  0  0  0  0
 20 18  1  0  0  0  0
 22 23  1  0  0  0  0
 24 22  1  0  0  0  0
 26 25  1  0  0  0  0
 27 25  1  0  0  0  0
 29 28  1  0  0  0  0
 30 18  1  0  0  0  0
 31 33  1  0  0  0  0
 32 31  1  0  0  0  0
 35 34  1  0  0  0  0
 36 34  1  0  0  0  0
M  RAD  1  12   2
M  END
$$$$
