27
2fa1dma1ma-2
H       -3.14142500       1.86431300      -1.58489600
H       -2.33430100      -0.72599900      -0.52556600
C       -2.52818800       1.17020900      -0.99116800
O       -2.92138700      -0.06331700      -1.11144100
O       -1.59394700       1.56968800      -0.30866600
H        2.78690000      -2.39792200      -1.59632500
H        1.94960200       0.21622100      -0.53351400
C        2.18180800      -1.69742500      -1.00002600
O        2.55219800      -0.46373200      -1.14719200
O        1.26882200      -2.10090600      -0.28703200
N        1.22743900       1.13177100       0.31634100
C        1.61314000       2.52011800       0.05008400
C        1.46720800       0.72856800       1.70351000
H        0.22854100       1.04490200       0.11117000
H        2.69109200       2.63266500       0.19832600
H        1.37573500       2.76375100      -0.98703000
H        1.08638200       3.22315900       0.70692800
H        2.53059000       0.84478200       1.93268100
H        0.88611500       1.33098100       2.41355900
H        1.20539800      -0.32587400       1.81839100
N       -1.55811500      -1.66836400       0.38616700
H       -1.89765300      -2.62319700       0.31322700
C       -1.68809500      -1.18603000       1.76737900
H       -1.05220700      -1.73393500       2.47157900
H       -1.42170500      -0.12628900       1.79465700
H       -2.72863900      -1.27573900       2.08893400
H       -0.57044000      -1.70218000       0.11629700
27
2fa1dma1ma-3
H        0.40583400       2.86065700       1.28579400
H       -1.84501600       0.70288000       0.12786800
C       -0.14554800       2.03398600       0.79915700
O       -1.38933300       2.00333900       0.94920300
O        0.52212100       1.18955900       0.13759100
H        4.44419500      -0.26978800      -0.74686900
H        2.00887800       1.10246600      -0.03874900
C        3.36135600      -0.19062200      -0.56892300
O        3.02178400       1.01343700      -0.19488400
O        2.61766800      -1.14611400      -0.71879200
N       -2.04537700      -0.16302900      -0.46684800
C       -1.78873900       0.17997300      -1.87642500
C       -3.39710700      -0.67282000      -0.19850900
H       -1.31321300      -0.88867300      -0.17133400
H       -2.49558700       0.94533500      -2.20381100
H       -0.77009700       0.56434800      -1.94085200
H       -1.89471300      -0.71173400      -2.49878300
H       -4.13980400       0.06804700      -0.50138300
H       -3.56211700      -1.60185000      -0.74950000
H       -3.49751200      -0.86211300       0.87114400
N       -0.07075400      -1.92330200       0.33269700
H       -0.07361500      -2.91290300       0.10544400
C        0.04136100      -1.73747300       1.78464400
H        0.95203000      -2.17726000       2.20813500
H        0.04937300      -0.66548200       1.99525300
H       -0.82460100      -2.18140300       2.28496400
H        0.76302500      -1.52823400      -0.11286800
27
2fa1dma1ma-1
H        3.91711200       1.15238200       0.23781200
H        2.04774800      -1.06096200       0.56249100
C        2.97994900       0.60105400       0.07025100
O        2.92430700      -0.49884500       0.76383200
O        2.12114200       1.01980800      -0.69382800
H       -3.76216600      -1.64847800      -0.05991700
H       -1.81847200       0.54488500      -0.37409100
C       -2.81070300      -1.11646700       0.09522800
O       -2.74041500      -0.00982100      -0.57873300
O       -1.94779100      -1.56944200       0.83889100
N       -0.69559700       1.40793900      -0.07845100
C       -0.57292900       1.51443400       1.37843700
C       -0.91576200       2.70737500      -0.72091300
H        0.18658800       1.03079600      -0.43403400
H       -1.50090300       1.92114000       1.79112400
H       -0.42158000       0.51898600       1.80044400
H        0.25997000       2.16635200       1.67011400
H       -1.86830300       3.12268000      -0.37919900
H       -0.11271700       3.41765900      -0.48935500
H       -0.96608100       2.57016500      -1.80288500
N        0.87850300      -1.98401700       0.22016900
H        1.05433400      -2.90131800       0.62165300
C        0.75980100      -2.09380500      -1.24150900
H       -0.08349200      -2.72081800      -1.54987700
H        0.63055900      -1.09406900      -1.66174300
H        1.68222000      -2.50968000      -1.65415800
H       -0.02524100      -1.68632600       0.59934600
