47
4sa3am1ma-33
S       -1.90943700       2.61497900      -0.29443000
O       -2.16690000       1.54020400      -1.29761500
O       -2.37946000       2.23555400       1.04394900
O       -2.81506800       3.86942200      -0.75422500
O       -0.55265400       3.15436700      -0.38677300
H       -3.74570000       3.65193100      -0.60293600
H        2.22567300       1.85735600       1.02533800
S        2.86284000      -0.75012400      -1.49283400
O        3.90348200      -0.56893900      -0.29857200
O        2.37609300       0.63000300      -1.83838600
O        1.69316200      -1.50143800      -0.92609000
O        3.56723100      -1.42808700      -2.55216800
H        0.76330200      -0.69983900       0.17193400
H        3.44475700      -0.33211700       0.54776000
S       -2.61809300      -2.10253600      -0.57904800
O       -1.51683600      -1.86044200      -1.54214100
O       -2.03463300      -2.39884700       0.78057300
O       -3.36842800      -0.69476800      -0.35803500
O       -3.62466300      -3.05299000      -0.99208500
H       -0.88574100       0.95773100      -2.39008000
H       -2.87836100       0.06357200      -0.75613600
S        1.28101400      -0.40362400       2.24932300
O        0.32687200      -0.24897300       0.94700600
O        2.53882500       0.31180300       1.88277600
O        0.50241500       0.27003000       3.29013500
O        1.50344700      -1.84181600       2.45536900
H        0.95426600      -3.08242800       1.33129600
H       -1.26570500      -0.05020700       2.96854200
N        0.44912700      -3.49116400       0.52086400
H        0.49768500      -4.50550000       0.51432800
H        0.88305200      -3.08997200      -0.32287300
H       -0.54754300      -3.15997500       0.58654500
N       -2.15795500      -0.17866900       2.45752100
H       -2.94056000      -0.27028000       3.09885900
H       -2.09723400      -1.02726600       1.84952000
H       -2.29278000       0.65751000       1.85967800
N       -0.24901100       0.22661700      -2.75497600
H       -0.58535400      -0.65945100      -2.31929400
H        0.73333900       0.42337900      -2.47168800
H       -0.31533200       0.15999000      -3.76688900
N        2.05604200       2.47931600       0.21397700
H        1.04620200       2.70295900       0.16983200
H        2.25901900       1.89113100      -0.61952200
C        2.88619500       3.70128300       0.25327400
H        2.65003900       4.26626500       1.15437400
H        3.93840700       3.41811500       0.25824000
H        2.66969900       4.30690100      -0.62606600
47
4sa3am1ma-16
S       -3.23013900      -0.30668000      -1.45033100
O       -3.86036100      -0.65376400      -0.16385700
O       -2.75556100       1.08868500      -1.51511600
O       -2.21443500      -1.27509000      -1.91598600
O       -4.38029700      -0.46423400      -2.57140200
H       -5.14024500       0.07636000      -2.31431700
S        2.21242900       2.52047800      -0.54920000
O        1.71805100       1.89548900       0.71369200
O        1.04312100       2.87255700      -1.41022700
O        3.19779200       3.56277600      -0.36883900
O        2.86307300       1.30990000      -1.40144900
H        3.30899400       0.65113600      -0.82550300
S        2.71726900      -2.06942500      -0.43115500
O        3.58412000      -0.94804200      -0.02054400
O        1.78991700      -2.45659400       0.67078400
O        2.02645800      -1.92715700      -1.71323200
O        3.69563100      -3.32989700      -0.67242800
H        4.39673800      -3.31214000      -0.00672100
S       -1.39916900      -0.47959500       2.16471400
O       -0.63039200      -0.22794800       0.90289900
O       -1.78209800      -1.89677700       2.27682900
O       -0.71536800       0.08852200       3.33106400
O       -2.73676500       0.38357100       2.03122200
H       -3.26990200       0.00951500       1.28012800
N        0.20011000       0.19143300      -1.87160900
H        0.44530100       1.18375300      -2.02826500
H       -0.03083800       0.06612300      -0.87583400
H       -0.62682400      -0.11108700      -2.39410800
H        1.00643700      -0.42000600      -2.07075500
N       -0.91659600      -2.99665200      -0.06630300
H       -1.34078800      -2.39771200      -0.79892700
H       -1.06305000      -3.97696400      -0.28963000
H        0.09632500      -2.80320800       0.04612200
H       -1.36571300      -2.74245000       0.84309000
N        1.93661700      -0.17087100       2.42996200
H        2.76495700      -0.17220100       3.01751500
H        1.87273900      -1.05925400       1.90345800
H        1.07005200      -0.04381400       2.98467100
H        1.98876900       0.61016100       1.73486700
C       -1.43837900       3.47993800       1.37695600
N       -1.13507500       2.52791200       0.28656400
H       -0.42756400       2.89425800      -0.38088600
H       -0.72216000       1.66026900       0.66486500
H       -1.88622800       4.37935800       0.95571700
H       -2.12399300       3.00207000       2.07594600
H       -0.50530300       3.72937700       1.88099500
H       -1.96213800       2.22163600      -0.24619000
47
4sa3am1ma-13
S        4.75612900      -0.18994000       0.08946800
O        4.57220400      -1.04079100      -1.10468500
O        4.49949700       1.24057500      -0.15598200
O        4.11015000      -0.74754300       1.28925900
O        6.32705800      -0.27361500       0.47220600
H        6.82240900       0.24052700      -0.18004200
S       -0.89451300      -1.87690700       0.30507400
O       -1.19110100      -0.49507700       0.72389800
O       -0.77018800      -2.01295800      -1.16901200
O        0.29186100      -2.43921300       0.99839300
O       -2.10040200      -2.78303800       0.77628800
H       -2.94325600      -2.35740200       0.45860900
S        1.10206900       1.71062200      -0.52753500
O        0.90676900       1.97734100       0.91903400
O        1.40876200       0.29543700      -0.79863200
O       -0.04775200       2.22926600      -1.31559500
O        2.33854200       2.55772100      -1.02914400
H        3.17167200       2.09540800      -0.73746900
S       -4.58742600      -0.08292900      -0.04381900
O       -4.18982000      -1.48519300      -0.27796400
O       -4.47905600       0.37303500       1.33963100
O       -3.96681500       0.86969100      -1.00807100
O       -6.14685400      -0.00231900      -0.47902800
H       -6.63622400      -0.66355200       0.02969900
N        2.14711400      -2.27684300      -1.17701000
H        1.72813700      -2.56253000      -0.27806700
H        3.14585100      -1.97379000      -1.08709900
H        2.03015000      -3.02052100      -1.85866100
H        1.61715900      -1.44091200      -1.45704400
N       -1.68401400       0.24490200      -2.40940300
H       -1.02567800       1.00078300      -2.12945300
H       -2.61782700       0.43154200      -1.98282300
H       -1.76141300       0.19365700      -3.42083000
H       -1.32841700      -0.65870600      -2.01679100
N        1.61736500      -0.31244800       2.29054400
H        2.60381700      -0.42925200       1.96994100
H        1.06323300      -1.11802200       1.94515400
H        1.57623700      -0.25914400       3.30377900
H        1.24905700       0.56211000       1.85677000
C       -2.31490300       2.90336900       1.92208400
N       -2.09764500       2.13037500       0.68264400
H       -2.95998500       2.00104100       0.13208900
H       -1.37243500       2.53118600       0.07023300
H       -3.06130200       2.38176100       2.52001500
H       -1.36713000       2.97347200       2.45450300
H       -2.67043500       3.90117500       1.66660700
H       -1.77691800       1.16898900       0.88515100
