69
4sa1ma1dma2eda-31
S        2.89933900       1.07911100      -1.36619400
O        2.18834800       0.71449600      -0.04185300
O        3.23332400       2.53045500      -1.28252300
O        1.93593300       0.80065400      -2.47162200
O        4.11609200       0.22988200      -1.46068300
H        0.28941900       3.08174900      -0.45883400
H        1.57047900      -0.58113600       0.08433500
S       -2.81302600      -2.70980100      -0.72652900
O       -2.78447500      -1.25809500      -0.26539300
O       -3.40019400      -3.57928200       0.27560100
O       -1.23715700      -3.06881500      -0.85497400
O       -3.29493700      -2.76683500      -2.10368400
H       -0.84651800      -3.18947000       0.04603900
H       -3.23212400      -0.20436300      -1.38280800
S        0.97495700      -1.98050800       1.68230100
O       -0.03234600      -3.04851600       1.62228500
O        2.34297100      -2.40594600       2.03682600
O        1.05824900      -1.47544600       0.16394800
O        0.52296500      -0.81083700       2.48808100
S       -2.06214500       2.75564000       0.47243500
O       -3.42141100       2.33034200       0.03350400
O       -1.01908900       2.03552900      -0.40781700
O       -1.81914100       4.20359200       0.36642600
O       -1.81074100       2.27164500       1.89226900
C       -3.22592100      -1.04871400       3.23380000
N       -2.27473900      -0.45098600       2.27502800
H       -1.29254000      -0.70196300       2.48431900
H       -2.47340100      -0.79901400       1.31046100
H       -2.98478400      -0.71814200       4.24403000
H       -4.23584400      -0.73378700       2.97293800
H       -3.15469800      -2.13400300       3.16547500
H       -2.30822100       0.58789900       2.23395500
C        5.54030900      -2.23818900       0.41983300
N        4.15199500      -2.05754000      -0.05031300
C        3.70010800      -3.08597000      -1.01393100
H        3.50609600      -2.07936900       0.76624700
H        6.21548800      -2.19048500      -0.43553000
H        5.77987500      -1.43576900       1.11719900
H        5.63198500      -3.20335500       0.92027700
H        4.32429900      -3.03523200      -1.90684900
H        3.77168800      -4.07091600      -0.55028800
H        2.66187900      -2.87672100      -1.26965000
H        4.07941500      -1.11581400      -0.52290800
C       -1.34876700      -0.24217600      -3.05486100
N       -0.48258500      -0.23842200      -1.84211400
C       -2.38776600       0.86957400      -3.02389900
N       -3.44354400       0.63500900      -1.99368800
H        0.49344900       0.07358400      -2.08183900
H       -0.44601000      -1.16126300      -1.39083500
H       -0.70581000      -0.09390500      -3.92442900
H       -1.83246100      -1.21893000      -3.13521900
H       -2.86219500       0.93060600      -4.00424000
H       -1.91779000       1.82969700      -2.80254400
H       -4.35781700       0.48032000      -2.41022100
H       -3.49957100       1.42577000      -1.28597800
H       -0.80757700       0.45149000      -1.13344700
C        1.74299100       3.08730000       1.95730300
N        0.86492000       1.89609000       1.93703000
C        1.21421200       4.20450200       1.06665600
N        1.06985800       3.78769900      -0.35417200
H        1.12834500       1.17474300       2.61527500
H        1.01165400       1.42362800       1.02456200
H        1.80509800       3.46655700       2.97892900
H        2.73345600       2.76153200       1.63017200
H        1.92316900       5.03391800       1.10774300
H        0.23075400       4.54973000       1.39530000
H        1.96121900       3.36667700      -0.75855000
H        0.78125400       4.58771400      -0.91438000
H       -0.16708900       2.10346000       2.04417100
69
4sa1ma1dma2eda-35
S        3.09522700       0.99921600      -1.36849100
O        2.30383700       0.92747000       0.02227700
O        4.29509600       0.15537600      -1.21500700
O        3.37429200       2.44368800      -1.49073700
O        2.15906700       0.47926400      -2.39284300
H        0.44025500       3.06050000      -0.44754100
H        1.80715300       0.02030700       0.18642500
S       -2.73507900      -2.70501500      -0.72725600
O       -1.14344400      -2.99815900      -0.73792700
O       -3.11811700      -2.79910600      -2.13493500
O       -2.79700500      -1.24559900      -0.28825000
O       -3.36192600      -3.58410700       0.24087700
H       -3.14940600      -0.21865800      -1.45753700
H       -0.79503600      -3.02128900       0.20228600
S        0.87561400      -1.74028500       1.79928900
O       -0.16828600      -2.79213800       1.71103100
O        0.95902100      -1.07321100       0.41780100
O        0.44948000      -0.68706600       2.79332900
O        2.22678900      -2.26443100       2.13187500
H        3.23274500      -2.22285100       0.82488000
S       -2.00762600       2.84786000       0.29571100
O       -3.29914400       2.57039100      -0.39109000
O       -0.89583000       2.01605900      -0.40491500
O       -1.59023300       4.26062000       0.23039000
O       -2.05726400       2.36561500       1.72776500
C       -3.30301000      -1.02048500       3.15053600
N       -2.31902100      -0.38831900       2.24722700
H       -2.42838900       0.63966600       2.15344700
H       -1.34432200      -0.57281300       2.55311500
H       -4.30768400      -0.80683200       2.78709200
H       -3.13495300      -2.09702000       3.14283000
H       -3.17976300      -0.62686600       4.15938100
H       -2.42837000      -0.78145100       1.28613000
N        3.83421800      -2.31839600      -0.03677700
H        4.00915200      -1.36631000      -0.42389000
C        5.12392600      -2.92848000       0.34530900
H        5.61151200      -2.28594800       1.07816400
H        4.93844500      -3.90962500       0.78443400
H        5.75598000      -3.02463900      -0.53879300
C        3.06966900      -3.09628500      -1.03809800
H        2.86418300      -4.08918400      -0.63563700
H        2.12874100      -2.57846300      -1.22003900
H        3.64914700      -3.16726600      -1.95953500
C        1.34910900       4.09662800       1.15019400
N        1.23661700       3.73746100      -0.29306100
C        1.66177100       2.90528400       2.04791500
N        0.59984100       1.87655100       2.00102500
H        2.10987600       3.32449300      -0.70257300
H        0.97818700       4.56910800      -0.82255300
H        2.15399300       4.82681000       1.25418700
H        0.39683900       4.55907200       1.42085100
H        1.74377000       3.26528200       3.07524400
H        2.59544200       2.42416000       1.75775300
H       -0.35006400       2.22491600       2.25544800
H        0.79613600       0.99470500       2.52747200
H        0.45133900       1.55469100       1.03331400
C       -2.24137100       0.77396600      -3.12353300
N       -3.33321900       0.58741000      -2.12293800
C       -1.20530200      -0.33850200      -3.07410600
N       -0.40920000      -0.30686000      -1.81484000
H       -4.23080100       0.40764300      -2.56496300
H       -3.40457400       1.43415200      -1.48259400
H       -2.67915400       0.80007000      -4.12228700
H       -1.77788900       1.74276000      -2.92420200
H       -0.51634500      -0.20979100      -3.91093300
H       -1.68547500      -1.31703500      -3.15429200
H       -0.72778600       0.43812800      -1.16119800
H        0.58918100      -0.08442400      -2.01144500
H       -0.44629000      -1.19941100      -1.30136300
69
4sa1ma1dma2eda-9
S        0.64181600      -2.66451500      -1.08016500
O        1.01283000      -1.21470900      -1.18087600
O       -0.17138400      -2.88661100       0.14597900
O        0.04029200      -3.18819000      -2.30152700
O        2.00878400      -3.45763000      -0.89142200
H        2.46858500      -3.09807100      -0.09385500
S        3.72205200      -0.93476500       1.09665200
O        3.01110600      -2.20828200       1.33133600
O        4.39482500      -0.86563000      -0.20988300
O        2.90473200       0.25759400       1.39736000
O        4.88002200      -0.85184300       2.22995300
H        5.47402000      -1.60635900       2.11370200
S        0.03695500       3.18943600      -0.87363900
O       -0.43249200       2.86331400      -2.23715400
O        0.45456500       1.90287100      -0.17841100
O        1.05405300       4.22312500      -0.78341800
O       -1.19188400       3.71161900      -0.01412400
H       -1.97040600       3.06374500      -0.04260900
S       -3.16511500       0.89116000       1.01044200
O       -2.68966300       1.36665800       2.35193200
O       -3.13092700       1.99068800      -0.00055200
O       -2.19991600      -0.19728200       0.53067200
O       -4.52055800       0.28248800       1.10992800
N       -4.44108700      -2.35487500       0.71544600
H       -5.36904600      -2.77055400       0.73232600
H       -4.52798200      -1.30580300       0.87159400
C       -3.54847000      -2.94226600       1.74097200
H       -3.46900600      -4.01911300       1.59142300
H       -2.56728500      -2.48467800       1.61645400
H       -3.93903800      -2.72157800       2.73451200
C        3.67977100       2.22469700      -1.17796700
N        2.81257700       1.07198400      -1.52309400
C        2.43160900       0.99910500      -2.95118700
H        3.29429500       0.20404300      -1.23207800
H        3.14156900       3.14928800      -1.39045400
H        3.90306400       2.16220300      -0.11360700
H        4.60032200       2.15888200      -1.75907000
H        1.81599100       1.86625600      -3.19690200
H        3.33652700       0.99063300      -3.56032300
H        1.87347600       0.07515500      -3.10082600
H        1.95216700       1.14103300      -0.94901900
C       -3.22721100      -1.20296600      -2.38825900
C       -2.08263600      -0.43643200      -3.04969100
N       -1.22066800       0.22421100      -2.03202600
N       -2.82225400      -2.29640500      -1.50533500
H       -3.99086400      -2.48612500      -0.24134700
H       -2.15246600      -1.96051900      -0.81236900
H       -3.83529600      -0.49637000      -1.81083700
H       -3.86710000      -1.60836700      -3.17754500
H       -2.49044600       0.33879400      -3.70220500
H       -1.45433300      -1.10731900      -3.64042900
H       -0.95993100       1.19943500      -2.27920500
H       -0.34711400      -0.30483100      -1.83736100
H       -2.32645500      -3.02172900      -2.01908600
H       -1.69263700       0.27580400      -1.10669600
C        0.13613300      -0.27317400       3.01873900
C        0.56442500       1.16073400       3.31152800
N       -0.17806100       2.12910000       2.46385800
N        0.23723200      -0.58276700       1.57852300
H        0.21349400      -1.59746400       1.35801000
H        1.12001300      -0.22356100       1.18478400
H        0.79342800      -0.94895800       3.56835100
H       -0.90052100      -0.44006900       3.32066100
H        1.63183400       1.28034100       3.11514100
H        0.35736200       1.38382300       4.35970000
H        0.14239300       2.07754000       1.46326000
H       -0.03430300       3.09076200       2.76605300
H       -0.59603700      -0.21925200       1.06168100
H       -1.23059100       1.91955000       2.45078100
