1ma_5w.log
 OpenBabel02281909513D
Gaussian groups/kemi/kmacke/programs/G09D/g09/g09 # opt freq 6-31++g(d,p) wb97xd
 22 16  0  0  0  0  0  0  0  0999 V2000
   -2.4009   -1.6346   -0.9061 C   0  0  0  0  0  0  0  0  0  0  0  0
   -1.8900   -2.1384   -1.7311 H   0  0  0  0  0  0  0  0  0  0  0  0
   -2.8226   -2.4080   -0.2584 H   0  0  0  0  0  0  0  0  0  0  0  0
   -3.2282   -1.0427   -1.3181 H   0  0  0  0  0  0  0  0  0  0  0  0
   -1.0418   -0.1007   -0.7322 H   0  0  0  0  0  0  0  0  0  0  0  0
   -1.9000   -0.3318    0.6051 H   0  0  0  0  0  0  0  0  0  0  0  0
    0.5526   -2.6164    1.5449 H   0  0  0  0  0  0  0  0  0  0  0  0
   -0.1268   -1.7646    0.3950 H   0  0  0  0  0  0  0  0  0  0  0  0
    3.3871   -1.4091   -0.5412 H   0  0  0  0  0  0  0  0  0  0  0  0
    2.1024   -1.4509    0.3464 H   0  0  0  0  0  0  0  0  0  0  0  0
    2.7216    2.1334    0.4552 H   0  0  0  0  0  0  0  0  0  0  0  0
    2.5541    0.7145   -0.1625 H   0  0  0  0  0  0  0  0  0  0  0  0
    0.6620    1.8994   -0.5927 H   0  0  0  0  0  0  0  0  0  0  0  0
   -0.3687    2.5781   -1.5491 H   0  0  0  0  0  0  0  0  0  0  0  0
   -1.5153    1.9796    0.5642 H   0  0  0  0  0  0  0  0  0  0  0  0
   -2.0660    2.3121    1.9770 H   0  0  0  0  0  0  0  0  0  0  0  0
   -1.4342   -0.8378   -0.1473 N   0  0  0  0  0  0  0  0  0  0  0  0
    0.6894   -2.3009    0.6489 O   0  0  0  0  0  0  0  0  0  0  0  0
    2.9062   -0.9158    0.1268 O   0  0  0  0  0  0  0  0  0  0  0  0
    2.3150    1.6659   -0.2778 O   0  0  0  0  0  0  0  0  0  0  0  0
   -0.2998    1.9913   -0.7931 O   0  0  0  0  0  0  0  0  0  0  0  0
   -2.1827    1.7242    1.2283 O   0  0  0  0  0  0  0  0  0  0  0  0
  1  3  1  0  0  0  0
  1 17  1  0  0  0  0
  2  1  1  0  0  0  0
  4  1  1  0  0  0  0
  5 17  1  0  0  0  0
  8 18  1  0  0  0  0
  9 19  1  0  0  0  0
 14 21  1  0  0  0  0
 15 22  1  0  0  0  0
 17  6  1  0  0  0  0
 18  7  1  0  0  0  0
 19 10  1  0  0  0  0
 20 12  1  0  0  0  0
 20 11  1  0  0  0  0
 21 13  1  0  0  0  0
 22 16  1  0  0  0  0
M  END
$$$$
