1ma_3w.log
 OpenBabel02281909513D
Gaussian groups/kemi/kmacke/programs/G09D/g09/g09 # opt freq 6-31++g(d,p) wb97xd
 16 12  0  0  0  0  0  0  0  0999 V2000
   -2.4607    0.1278    0.4937 C   0  0  0  0  0  0  0  0  0  0  0  0
   -3.1241   -0.7418    0.4739 H   0  0  0  0  0  0  0  0  0  0  0  0
   -1.9621    0.1458    1.4667 H   0  0  0  0  0  0  0  0  0  0  0  0
   -3.0766    1.0328    0.4118 H   0  0  0  0  0  0  0  0  0  0  0  0
   -1.8807   -0.0052   -1.4725 H   0  0  0  0  0  0  0  0  0  0  0  0
   -0.8147    0.8104   -0.5233 H   0  0  0  0  0  0  0  0  0  0  0  0
    0.1423   -2.5591    0.5291 H   0  0  0  0  0  0  0  0  0  0  0  0
   -0.3285   -1.3038   -0.3082 H   0  0  0  0  0  0  0  0  0  0  0  0
    3.1240   -0.3196   -0.3406 H   0  0  0  0  0  0  0  0  0  0  0  0
    1.7719   -0.8877    0.1786 H   0  0  0  0  0  0  0  0  0  0  0  0
    0.8620    2.6529    0.5116 H   0  0  0  0  0  0  0  0  0  0  0  0
    1.4302    1.2920    0.0220 H   0  0  0  0  0  0  0  0  0  0  0  0
   -1.4468    0.0057   -0.5553 N   0  0  0  0  0  0  0  0  0  0  0  0
    0.4308   -1.9336   -0.1388 O   0  0  0  0  0  0  0  0  0  0  0  0
    2.4184   -0.1529    0.2884 O   0  0  0  0  0  0  0  0  0  0  0  0
    0.7443    1.9711   -0.1526 O   0  0  0  0  0  0  0  0  0  0  0  0
  1  3  1  0  0  0  0
  2  1  1  0  0  0  0
  4  1  1  0  0  0  0
  5 13  1  0  0  0  0
  8 14  1  0  0  0  0
  9 15  1  0  0  0  0
 10 15  1  0  0  0  0
 13  6  1  0  0  0  0
 13  1  1  0  0  0  0
 14  7  1  0  0  0  0
 16 12  1  0  0  0  0
 16 11  1  0  0  0  0
M  END
$$$$
