1ma_2w.log
 OpenBabel02281909513D
Gaussian groups/kemi/kmacke/programs/G09D/g09/g09 # opt freq 6-31++g(d,p) wb97xd
 13 10  0  0  0  0  0  0  0  0999 V2000
    2.0033   -0.1874   -0.4531 C   0  0  0  0  0  0  0  0  0  0  0  0
    1.4653   -0.2041   -1.4042 H   0  0  0  0  0  0  0  0  0  0  0  0
    2.6650    0.6829   -0.4620 H   0  0  0  0  0  0  0  0  0  0  0  0
    2.6210   -1.0931   -0.3915 H   0  0  0  0  0  0  0  0  0  0  0  0
    0.3922   -0.8478    0.6377 H   0  0  0  0  0  0  0  0  0  0  0  0
    1.4989   -0.0295    1.5355 H   0  0  0  0  0  0  0  0  0  0  0  0
   -1.4562    2.1369    0.3997 H   0  0  0  0  0  0  0  0  0  0  0  0
   -0.2617    1.1381    0.1950 H   0  0  0  0  0  0  0  0  0  0  0  0
   -1.7384   -0.2887   -0.1487 H   0  0  0  0  0  0  0  0  0  0  0  0
   -2.1806   -1.6844   -0.6696 H   0  0  0  0  0  0  0  0  0  0  0  0
    1.0327   -0.0540    0.6351 N   0  0  0  0  0  0  0  0  0  0  0  0
   -1.1162    1.4600   -0.1893 O   0  0  0  0  0  0  0  0  0  0  0  0
   -1.6656   -1.2485    0.0118 O   0  0  0  0  0  0  0  0  0  0  0  0
  1  4  1  0  0  0  0
  1 11  1  0  0  0  0
  2  1  1  0  0  0  0
  3  1  1  0  0  0  0
  9 13  1  0  0  0  0
 10 13  1  0  0  0  0
 11  5  1  0  0  0  0
 11  6  1  0  0  0  0
 12  8  1  0  0  0  0
 12  7  1  0  0  0  0
M  END
$$$$
