1sa_2ma_4w.log
 OpenBabel02281909513D
Gaussian groups/kemi/kmacke/programs/G09D/g09/g09 # opt freq 6-31++g(d,p) wb97xd
 33 26  0  0  0  0  0  0  0  0999 V2000
    3.5561    1.9954    0.7990 C   0  0  0  0  0  0  0  0  0  0  0  0
   -3.5944   -1.7877    0.5931 C   0  0  0  0  0  0  0  0  0  0  0  0
    3.7739    2.6017   -0.0806 H   0  0  0  0  0  0  0  0  0  0  0  0
    2.9060    2.5576    1.4694 H   0  0  0  0  0  0  0  0  0  0  0  0
    4.4855    1.7491    1.3135 H   0  0  0  0  0  0  0  0  0  0  0  0
    3.4030    0.1768   -0.2662 H   0  0  0  0  0  0  0  0  0  0  0  0
    2.6444    0.1095    1.1722 H   0  0  0  0  0  0  0  0  0  0  0  0
   -1.8485   -0.7870    1.1654 H   0  0  0  0  0  0  0  0  0  0  0  0
    1.9252    0.9524   -0.0758 H   0  0  0  0  0  0  0  0  0  0  0  0
   -3.3147   -2.7450    1.0335 H   0  0  0  0  0  0  0  0  0  0  0  0
   -4.6740   -1.6456    0.6498 H   0  0  0  0  0  0  0  0  0  0  0  0
   -3.2601   -1.7497   -0.4441 H   0  0  0  0  0  0  0  0  0  0  0  0
   -3.1527    0.2380    0.8729 H   0  0  0  0  0  0  0  0  0  0  0  0
   -3.1232   -0.6799    2.3032 H   0  0  0  0  0  0  0  0  0  0  0  0
   -2.7889    1.0109   -0.8931 H   0  0  0  0  0  0  0  0  0  0  0  0
   -2.7077    2.2381    0.0083 H   0  0  0  0  0  0  0  0  0  0  0  0
    3.6906   -2.2835   -1.4605 H   0  0  0  0  0  0  0  0  0  0  0  0
    2.3105   -1.6150   -1.1442 H   0  0  0  0  0  0  0  0  0  0  0  0
   -0.9998    3.8032   -0.5570 H   0  0  0  0  0  0  0  0  0  0  0  0
   -0.5175    2.3826   -0.1613 H   0  0  0  0  0  0  0  0  0  0  0  0
    2.4828   -2.0092    1.2561 H   0  0  0  0  0  0  0  0  0  0  0  0
    1.1195   -1.3312    1.5167 H   0  0  0  0  0  0  0  0  0  0  0  0
    2.8659    0.7627    0.3861 N   0  0  0  0  0  0  0  0  0  0  0  0
   -2.9040   -0.6921    1.3107 N   0  0  0  0  0  0  0  0  0  0  0  0
    0.7308   -1.2513   -1.5082 O   0  0  0  0  0  0  0  0  0  0  0  0
   -1.5332   -0.2658   -1.3943 O   0  0  0  0  0  0  0  0  0  0  0  0
   -0.3573   -0.8881    0.6627 O   0  0  0  0  0  0  0  0  0  0  0  0
    0.4285    1.0273   -0.6561 O   0  0  0  0  0  0  0  0  0  0  0  0
   -3.3019    1.4938   -0.2144 O   0  0  0  0  0  0  0  0  0  0  0  0
    3.2463   -1.7142   -0.8291 O   0  0  0  0  0  0  0  0  0  0  0  0
   -1.0945    3.1302    0.1214 O   0  0  0  0  0  0  0  0  0  0  0  0
    2.0387   -1.4000    1.8615 O   0  0  0  0  0  0  0  0  0  0  0  0
   -0.1948   -0.3606   -0.7660 S   0  0  0  0  0  0  0  0  0  0  0  0
  1  5  1  0  0  0  0
  1  4  1  0  0  0  0
  2 11  1  0  0  0  0
  2 10  1  0  0  0  0
  2 24  1  0  0  0  0
  3  1  1  0  0  0  0
  6 23  1  0  0  0  0
  8 24  1  0  0  0  0
  9 23  1  0  0  0  0
 12  2  1  0  0  0  0
 13 24  1  0  0  0  0
 15 29  1  0  0  0  0
 17 30  1  0  0  0  0
 18 30  1  0  0  0  0
 19 31  1  0  0  0  0
 20 31  1  0  0  0  0
 21 32  1  0  0  0  0
 22 32  1  0  0  0  0
 23  1  1  0  0  0  0
 23  7  1  0  0  0  0
 24 14  1  0  0  0  0
 25 33  2  0  0  0  0
 26 33  2  0  0  0  0
 29 16  1  0  0  0  0
 33 28  1  0  0  0  0
 33 27  1  0  0  0  0
M  RAD  2  27   2  28   2
M  END
$$$$
