1sa_1ma_4w.log
 OpenBabel02281909513D
Gaussian groups/kemi/kmacke/programs/G09D/g09/g09 # opt freq 6-31++g(d,p) wb97xd
 26 20  0  0  0  0  0  0  0  0999 V2000
   -2.8578    0.4119    1.9092 C   0  0  0  0  0  0  0  0  0  0  0  0
   -2.9080   -0.5637    2.3917 H   0  0  0  0  0  0  0  0  0  0  0  0
   -2.4258    1.1377    2.5981 H   0  0  0  0  0  0  0  0  0  0  0  0
   -3.8608    0.7278    1.6214 H   0  0  0  0  0  0  0  0  0  0  0  0
   -2.3758   -0.4031    0.0463 H   0  0  0  0  0  0  0  0  0  0  0  0
   -1.9346    1.2258    0.2112 H   0  0  0  0  0  0  0  0  0  0  0  0
    3.5315   -1.0302    0.3769 H   0  0  0  0  0  0  0  0  0  0  0  0
   -1.0408    0.0246    0.9698 H   0  0  0  0  0  0  0  0  0  0  0  0
    0.0428   -3.3888   -0.8543 H   0  0  0  0  0  0  0  0  0  0  0  0
    0.2251   -1.9083   -1.2763 H   0  0  0  0  0  0  0  0  0  0  0  0
   -1.8998    3.5733   -0.6719 H   0  0  0  0  0  0  0  0  0  0  0  0
   -0.6875    2.6561   -1.0705 H   0  0  0  0  0  0  0  0  0  0  0  0
    1.5106    2.3724   -0.8466 H   0  0  0  0  0  0  0  0  0  0  0  0
    0.9265    1.4839   -1.9099 H   0  0  0  0  0  0  0  0  0  0  0  0
   -1.9566   -2.2401   -1.0798 H   0  0  0  0  0  0  0  0  0  0  0  0
   -3.3408   -1.8107   -1.6639 H   0  0  0  0  0  0  0  0  0  0  0  0
   -2.0071    0.3138    0.7064 N   0  0  0  0  0  0  0  0  0  0  0  0
    2.2995    1.1159    0.5436 O   0  0  0  0  0  0  0  0  0  0  0  0
    1.0947   -0.4174   -0.9460 O   0  0  0  0  0  0  0  0  0  0  0  0
    2.6852   -1.3212    0.7427 O   0  0  0  0  0  0  0  0  0  0  0  0
    0.5551   -0.4206    1.4489 O   0  0  0  0  0  0  0  0  0  0  0  0
   -0.3539   -2.6934   -1.3849 O   0  0  0  0  0  0  0  0  0  0  0  0
   -1.6126    2.6596   -0.7179 O   0  0  0  0  0  0  0  0  0  0  0  0
    0.9024    2.4024   -1.6030 O   0  0  0  0  0  0  0  0  0  0  0  0
   -2.8225   -1.8194   -0.8561 O   0  0  0  0  0  0  0  0  0  0  0  0
    1.5879   -0.1607    0.4337 S   0  0  0  0  0  0  0  0  0  0  0  0
  1  2  1  0  0  0  0
  1  3  1  0  0  0  0
  4  1  1  0  0  0  0
  5 17  1  0  0  0  0
  6 17  1  0  0  0  0
  7 20  1  0  0  0  0
 12 23  1  0  0  0  0
 14 24  1  0  0  0  0
 15 25  1  0  0  0  0
 16 25  1  0  0  0  0
 17  8  1  0  0  0  0
 17  1  1  0  0  0  0
 19 26  2  0  0  0  0
 22 10  1  0  0  0  0
 22  9  1  0  0  0  0
 23 11  1  0  0  0  0
 24 13  1  0  0  0  0
 26 18  2  0  0  0  0
 26 20  1  0  0  0  0
 26 21  1  0  0  0  0
M  RAD  1  21   2
M  END
$$$$
