2sa_2ma_3w.log
 OpenBabel02281909513D
Gaussian users/kemi/kmacke/programs/G09D/g09/g09 # opt freq 6-31++g(d,p) wb97xd
 37 30  0  0  0  0  0  0  0  0999 V2000
   -1.6041   -1.7100    0.8512 N   0  0  0  0  0  0  0  0  0  0  0  0
   -3.2591   -1.4890   -1.3520 O   0  0  0  0  0  0  0  0  0  0  0  0
   -0.7143    0.9710    0.8778 O   0  0  0  0  0  0  0  0  0  0  0  0
   -1.1188    1.5642   -0.4414 S   0  0  0  0  0  0  0  0  0  0  0  0
   -0.2202    2.6479   -0.8406 O   0  0  0  0  0  0  0  0  0  0  0  0
   -2.5508    1.8512   -0.5206 O   0  0  0  0  0  0  0  0  0  0  0  0
   -0.9315    0.3493   -1.4965 O   0  0  0  0  0  0  0  0  0  0  0  0
    1.5860   -0.5382   -1.1773 O   0  0  0  0  0  0  0  0  0  0  0  0
    1.9717   -1.6190   -0.2268 S   0  0  0  0  0  0  0  0  0  0  0  0
    3.1860   -2.4144   -0.9384 O   0  0  0  0  0  0  0  0  0  0  0  0
    0.8925   -2.6026   -0.0435 O   0  0  0  0  0  0  0  0  0  0  0  0
    2.5826   -1.1141    1.0047 O   0  0  0  0  0  0  0  0  0  0  0  0
    1.9939    1.5977    1.2847 N   0  0  0  0  0  0  0  0  0  0  0  0
    2.5082    2.1768   -1.3640 O   0  0  0  0  0  0  0  0  0  0  0  0
   -1.3618   -0.7157    1.0189 H   0  0  0  0  0  0  0  0  0  0  0  0
   -2.2100   -1.7239   -0.0038 H   0  0  0  0  0  0  0  0  0  0  0  0
    2.3856    0.6447    1.3763 H   0  0  0  0  0  0  0  0  0  0  0  0
   -0.0078   -0.0093   -1.4362 H   0  0  0  0  0  0  0  0  0  0  0  0
   -0.7141   -2.1828    0.6148 H   0  0  0  0  0  0  0  0  0  0  0  0
    0.9632    1.4714    1.2574 H   0  0  0  0  0  0  0  0  0  0  0  0
    2.2692    1.9295    0.3287 H   0  0  0  0  0  0  0  0  0  0  0  0
    2.8278   -2.9183   -1.6823 H   0  0  0  0  0  0  0  0  0  0  0  0
   -2.7358   -0.8532   -1.8587 H   0  0  0  0  0  0  0  0  0  0  0  0
   -3.9220   -0.9573   -0.8755 H   0  0  0  0  0  0  0  0  0  0  0  0
    2.4710    1.2446   -1.6272 H   0  0  0  0  0  0  0  0  0  0  0  0
    1.6091    2.5086   -1.5249 H   0  0  0  0  0  0  0  0  0  0  0  0
   -4.3220    0.1220    0.6231 O   0  0  0  0  0  0  0  0  0  0  0  0
   -3.7509    0.8636    0.3326 H   0  0  0  0  0  0  0  0  0  0  0  0
   -5.1758    0.5024    0.8413 H   0  0  0  0  0  0  0  0  0  0  0  0
    2.4250    2.5233    2.3486 C   0  0  0  0  0  0  0  0  0  0  0  0
    1.9471    3.4901    2.1923 H   0  0  0  0  0  0  0  0  0  0  0  0
    2.1349    2.1234    3.3201 H   0  0  0  0  0  0  0  0  0  0  0  0
    3.5077    2.6404    2.3078 H   0  0  0  0  0  0  0  0  0  0  0  0
   -2.3015   -2.3090    2.0063 C   0  0  0  0  0  0  0  0  0  0  0  0
   -3.2278   -1.7580    2.1695 H   0  0  0  0  0  0  0  0  0  0  0  0
   -2.5229   -3.3537    1.7887 H   0  0  0  0  0  0  0  0  0  0  0  0
   -1.6644   -2.2469    2.8887 H   0  0  0  0  0  0  0  0  0  0  0  0
  1 15  1  0  0  0  0
  1 34  1  0  0  0  0
  2 24  1  0  0  0  0
  4  3  1  0  0  0  0
  5  4  2  0  0  0  0
  6  4  2  0  0  0  0
  7 18  1  0  0  0  0
  7  4  1  0  0  0  0
  8  9  2  0  0  0  0
  9 11  2  0  0  0  0
  9 12  1  0  0  0  0
 10  9  1  0  0  0  0
 13 17  1  0  0  0  0
 13 30  1  0  0  0  0
 16  1  1  0  0  0  0
 19  1  1  0  0  0  0
 20 13  1  0  0  0  0
 21 13  1  0  0  0  0
 22 10  1  0  0  0  0
 23  2  1  0  0  0  0
 25 14  1  0  0  0  0
 26 14  1  0  0  0  0
 27 29  1  0  0  0  0
 28 27  1  0  0  0  0
 30 32  1  0  0  0  0
 31 30  1  0  0  0  0
 33 30  1  0  0  0  0
 34 35  1  0  0  0  0
 34 37  1  0  0  0  0
 36 34  1  0  0  0  0
M  RAD  2   3   2  12   2
M  END
$$$$
