35
1msa2tma-01
N       -0.20619800       1.81849300       0.00778900
C        0.99969900       2.67826000       0.10326400
H        1.41470100       2.59083800       1.10784400
H        1.73805300       2.31566300      -0.61239700
H        0.72273500       3.71318100      -0.11264700
C       -0.69826700       1.72097100      -1.38732500
H        0.07881800       1.23117100      -1.97656400
H       -1.60367700       1.11379100      -1.37772900
H       -0.90873300       2.72498200      -1.76544100
C       -1.26917200       2.23537500       0.94728900
H       -2.09086300       1.52385800       0.85089100
H       -0.86748100       2.21146500       1.96129100
H       -1.59970900       3.24743400       0.69928200
H        0.11899000       0.83810500       0.30874200
S        2.10979200      -0.59836500       0.02925800
O        3.23604500       0.04674100       0.71161700
O        1.89602500      -0.17489200      -1.37342900
O        0.81362400      -0.46841600       0.80545100
C        2.43255700      -2.35549000       0.00474500
H        2.54129100      -2.69771300       1.03413300
H        1.59778100      -2.85705700      -0.48570300
H        3.35733900      -2.51530000      -0.55037400
N       -2.61016200      -0.74137500       0.00529100
C       -2.36459200      -1.19764300       1.36744200
H       -1.29031900      -1.18205100       1.56795200
H       -2.86853200      -0.53302800       2.07793400
H       -2.74374800      -2.22298700       1.53582700
C       -4.03185400      -0.71892900      -0.29279900
H       -4.55108900      -0.06146700       0.41219700
H       -4.19534400      -0.33311900      -1.30422100
H       -4.49491800      -1.72177000      -0.22858300
C       -1.88366000      -1.56895000      -0.94922100
H       -2.05616000      -1.20366200      -1.96692700
H       -0.81355400      -1.50981500      -0.73655000
H       -2.20155700      -2.62752900      -0.90812900
35
1msa2tma-02
N       -0.15492600       1.93048200      -0.03261500
C        0.92169400       2.94348900      -0.12174200
H        1.78767800       2.55416300       0.41571300
H        1.17791500       3.09001300      -1.17193900
H        0.57310800       3.88328700       0.31431600
C       -1.33465300       2.27623200      -0.85386700
H       -1.02655200       2.36484000      -1.89675300
H       -2.06159600       1.46948700      -0.74124700
H       -1.75437800       3.22426200      -0.50659800
C       -0.53081800       1.65321000       1.37638700
H       -1.30068800       0.88095700       1.36311200
H        0.35884100       1.29520900       1.89626800
H       -0.91171900       2.57152400       1.83171600
H        0.26920900       1.02152900      -0.43033600
S        1.94501600      -0.75426600       0.06873900
O        1.39226700      -1.95215000       0.70999000
O        2.36653100       0.32430800       0.99182000
O        1.02283000      -0.19489600      -0.99540400
C        3.40181700      -1.26348300      -0.83171000
H        4.11176300      -1.66959000      -0.11036300
H        3.10949800      -2.02666000      -1.55308500
H        3.82178100      -0.39281200      -1.33549200
N       -2.52944000      -0.78685100      -0.00689800
C       -2.02280300      -1.66846100       1.03997300
H       -0.93523900      -1.75762800       0.96520100
H       -2.27762700      -1.25956300       2.02412500
H       -2.46023700      -2.68160800       0.96968100
C       -3.97386500      -0.65678800       0.07656000
H       -4.25678900      -0.26054000       1.05717200
H       -4.33367800       0.03757500      -0.69076100
H       -4.49402900      -1.62285100      -0.06657200
C       -2.11883900      -1.26961100      -1.31990500
H       -2.48248800      -0.58553200      -2.09545900
H       -1.02767600      -1.30376500      -1.37108400
H       -2.52503100      -2.27508100      -1.53627500
35
1msa2tma-04
N        0.35437500       2.13181100      -0.02227800
C        1.00264600       3.43918400      -0.24898600
H        1.79312100       3.57562500       0.49004200
H        1.44038100       3.44485100      -1.24793100
H        0.26255400       4.23878000      -0.15952100
C       -0.65043200       1.81801900      -1.06817200
H       -0.13043100       1.66606000      -2.01493000
H       -1.19226400       0.91192900      -0.77489300
H       -1.35497300       2.65113000      -1.14841200
C       -0.22181100       2.01037400       1.33692100
H       -0.52645400       0.97389300       1.48124400
H        0.54724200       2.26048900       2.06853100
H       -1.07236400       2.69076400       1.43116800
H        1.14101000       1.38637400      -0.11750800
S        1.76438200      -0.98278700      -0.05970800
O        1.19505800      -1.63886100      -1.24343200
O        0.88764100      -0.97008700       1.13121700
O        2.25937400       0.41777900      -0.35703100
C        3.24070900      -1.88466400       0.38445000
H        2.94647000      -2.90997600       0.61081800
H        3.92465500      -1.86219800      -0.46420100
H        3.68916200      -1.41074600       1.25756000
N       -2.64336300      -0.61543600      -0.00652200
C       -4.02711100      -0.21729800      -0.18456500
H       -4.30410100       0.52281300       0.57338200
H       -4.16130000       0.23642100      -1.17225900
H       -4.72912400      -1.06959700      -0.10279400
C       -2.23001900      -1.56783200      -1.02982900
H       -2.37555200      -1.12716700      -2.02211600
H       -1.16838700      -1.80191800      -0.91634200
H       -2.81454200      -2.50603900      -0.98258900
C       -2.41405600      -1.15682100       1.32495300
H       -1.35386600      -1.39609500       1.44166100
H       -2.69313000      -0.41221800       2.07911200
H       -3.01142900      -2.06962200       1.51223800
