1sa_2a.log
 OpenBabel02271919093D
Gaussian 09 # opt freq wB97XD/6-31++G(d,p)
 15 12  0  0  0  0  0  0  0  0999 V2000
   -3.0823   -0.9034   -0.0145 N   0  0  0  0  0  0  0  0  0  0  0  0
   -3.0576   -0.0956    0.6052 H   0  0  0  0  0  0  0  0  0  0  0  0
   -3.2283   -1.7341    0.5493 H   0  0  0  0  0  0  0  0  0  0  0  0
   -3.8714   -0.8015   -0.6440 H   0  0  0  0  0  0  0  0  0  0  0  0
    3.0823   -0.9034    0.0145 N   0  0  0  0  0  0  0  0  0  0  0  0
    3.8714   -0.8015    0.6440 H   0  0  0  0  0  0  0  0  0  0  0  0
    3.0576   -0.0956   -0.6052 H   0  0  0  0  0  0  0  0  0  0  0  0
    3.2283   -1.7341   -0.5492 H   0  0  0  0  0  0  0  0  0  0  0  0
    0.0000    0.4915    0.0000 S   0  0  0  0  0  0  0  0  0  0  0  0
    1.0388    1.2072   -0.7145 O   0  0  0  0  0  0  0  0  0  0  0  0
   -1.0388    1.2072    0.7145 O   0  0  0  0  0  0  0  0  0  0  0  0
   -0.6774   -0.4864   -1.0383 O   0  0  0  0  0  0  0  0  0  0  0  0
    0.6774   -0.4864    1.0383 O   0  0  0  0  0  0  0  0  0  0  0  0
    1.6107   -0.7434    0.7001 H   0  0  0  0  0  0  0  0  0  0  0  0
   -1.6106   -0.7434   -0.7001 H   0  0  0  0  0  0  0  0  0  0  0  0
  1  3  1  0  0  0  0
  1  2  1  0  0  0  0
  4  1  1  0  0  0  0
  5  6  1  0  0  0  0
  7  5  1  0  0  0  0
  8  5  1  0  0  0  0
  9 11  2  0  0  0  0
  9 13  1  0  0  0  0
 10  9  2  0  0  0  0
 12 15  1  0  0  0  0
 12  9  1  0  0  0  0
 14 13  1  0  0  0  0
M  END
$$$$
