2sa_1a.log
 OpenBabel02271919093D
Gaussian kemi/andersx/programs/g09/g09 # opt freq wb97xd 6-31++g(d,p)
 18 15  0  0  0  0  0  0  0  0999 V2000
    1.8184   -0.3355   -0.0476 S   0  0  0  0  0  0  0  0  0  0  0  0
    2.3262    0.7970   -0.8353 O   0  0  0  0  0  0  0  0  0  0  0  0
    1.0890    0.1335    1.1632 O   0  0  0  0  0  0  0  0  0  0  0  0
    3.1574   -1.0674    0.4574 O   0  0  0  0  0  0  0  0  0  0  0  0
    1.0582   -1.3542   -0.7907 O   0  0  0  0  0  0  0  0  0  0  0  0
   -0.2770    2.1693   -0.1760 H   0  0  0  0  0  0  0  0  0  0  0  0
    2.9376   -1.9730    0.7182 H   0  0  0  0  0  0  0  0  0  0  0  0
   -2.1058   -0.1292   -0.0231 S   0  0  0  0  0  0  0  0  0  0  0  0
   -1.4793   -0.4045    1.3998 O   0  0  0  0  0  0  0  0  0  0  0  0
   -3.5293   -0.2197    0.0857 O   0  0  0  0  0  0  0  0  0  0  0  0
   -1.6049   -1.3280   -0.9097 O   0  0  0  0  0  0  0  0  0  0  0  0
   -1.5052    1.1064   -0.5452 O   0  0  0  0  0  0  0  0  0  0  0  0
   -0.4900   -0.2532    1.3839 H   0  0  0  0  0  0  0  0  0  0  0  0
   -0.6090   -1.3436   -0.9631 H   0  0  0  0  0  0  0  0  0  0  0  0
    0.6056    2.7121   -0.0201 N   0  0  0  0  0  0  0  0  0  0  0  0
    0.7717    2.7793    0.9826 H   0  0  0  0  0  0  0  0  0  0  0  0
    0.5481    3.6350   -0.4421 H   0  0  0  0  0  0  0  0  0  0  0  0
    1.3806    2.1326   -0.4345 H   0  0  0  0  0  0  0  0  0  0  0  0
  1  4  1  0  0  0  0
  1  3  1  0  0  0  0
  2  1  2  0  0  0  0
  4  7  1  0  0  0  0
  5  1  2  0  0  0  0
  6 15  1  0  0  0  0
  8 10  2  0  0  0  0
  8  9  1  0  0  0  0
 11  8  1  0  0  0  0
 12  8  2  0  0  0  0
 13  9  1  0  0  0  0
 14 11  1  0  0  0  0
 15 16  1  0  0  0  0
 17 15  1  0  0  0  0
 18 15  1  0  0  0  0
M  RAD  1   3   2
M  END
$$$$
