2sa_4a.log
 OpenBabel02271919093D
Gaussian 09 # opt freq wB97XD/6-31++G(d,p)
 30 24  0  0  0  0  0  0  0  0999 V2000
   -1.8288    0.2762   -0.5808 S   0  0  0  0  0  0  0  0  0  0  0  0
   -1.2593    0.5499    0.7822 O   0  0  0  0  0  0  0  0  0  0  0  0
   -3.1982   -0.2198   -0.5511 O   0  0  0  0  0  0  0  0  0  0  0  0
   -0.9849   -0.9858   -1.1279 O   0  0  0  0  0  0  0  0  0  0  0  0
   -1.5502    1.4110   -1.4811 O   0  0  0  0  0  0  0  0  0  0  0  0
   -0.0348   -0.7299   -1.2644 H   0  0  0  0  0  0  0  0  0  0  0  0
   -0.5139   -1.8723    1.7820 N   0  0  0  0  0  0  0  0  0  0  0  0
    0.4417   -1.9511    1.3834 H   0  0  0  0  0  0  0  0  0  0  0  0
   -0.4920   -2.0612    2.7792 H   0  0  0  0  0  0  0  0  0  0  0  0
   -1.2122   -2.4984    1.2848 H   0  0  0  0  0  0  0  0  0  0  0  0
   -0.8242   -0.8907    1.5902 H   0  0  0  0  0  0  0  0  0  0  0  0
   -2.5316   -3.1343    0.2841 N   0  0  0  0  0  0  0  0  0  0  0  0
   -3.2043   -3.8312    0.5862 H   0  0  0  0  0  0  0  0  0  0  0  0
   -2.1116   -3.4613   -0.5813 H   0  0  0  0  0  0  0  0  0  0  0  0
   -3.0411   -2.2825    0.0358 H   0  0  0  0  0  0  0  0  0  0  0  0
    0.6633    2.7166   -0.4229 N   0  0  0  0  0  0  0  0  0  0  0  0
    1.1592    3.3893   -0.9992 H   0  0  0  0  0  0  0  0  0  0  0  0
    1.3345    2.0327   -0.0184 H   0  0  0  0  0  0  0  0  0  0  0  0
    0.1293    3.1799    0.3599 H   0  0  0  0  0  0  0  0  0  0  0  0
   -0.0511    2.2069   -0.9862 H   0  0  0  0  0  0  0  0  0  0  0  0
    2.3750   -0.4108   -0.0444 S   0  0  0  0  0  0  0  0  0  0  0  0
    1.5831   -0.2970   -1.2912 O   0  0  0  0  0  0  0  0  0  0  0  0
    2.0503   -1.6258    0.7268 O   0  0  0  0  0  0  0  0  0  0  0  0
    2.4076    0.8354    0.7302 O   0  0  0  0  0  0  0  0  0  0  0  0
    3.9180   -0.5883   -0.5092 O   0  0  0  0  0  0  0  0  0  0  0  0
    4.0027   -1.4391   -0.9606 H   0  0  0  0  0  0  0  0  0  0  0  0
   -1.1065    3.4080    1.6382 N   0  0  0  0  0  0  0  0  0  0  0  0
   -1.3974    2.4280    1.5932 H   0  0  0  0  0  0  0  0  0  0  0  0
   -0.8345    3.6200    2.5921 H   0  0  0  0  0  0  0  0  0  0  0  0
   -1.9132    3.9801    1.4104 H   0  0  0  0  0  0  0  0  0  0  0  0
  1  3  2  0  0  0  0
  1  2  1  0  0  0  0
  4  1  1  0  0  0  0
  5  1  2  0  0  0  0
  6  4  1  0  0  0  0
  7  9  1  0  0  0  0
  8  7  1  0  0  0  0
 10  7  1  0  0  0  0
 11  7  1  0  0  0  0
 12 13  1  0  0  0  0
 14 12  1  0  0  0  0
 15 12  1  0  0  0  0
 16 18  1  0  0  0  0
 16 19  1  0  0  0  0
 17 16  1  0  0  0  0
 20 16  1  0  0  0  0
 21 23  2  0  0  0  0
 21 24  1  0  0  0  0
 22 21  2  0  0  0  0
 25 21  1  0  0  0  0
 26 25  1  0  0  0  0
 27 29  1  0  0  0  0
 28 27  1  0  0  0  0
 30 27  1  0  0  0  0
M  RAD  2   2   2  24   2
M  END
$$$$
