3sa_1a.sdf 
 OpenBabel09082008333D
Besel et al., Gaussian 16, # opt freq 6-31++g(d,p) wb97xd
 25 21  0  0  0  0  0  0  0  0999 V2000
    0.1114   -1.1942    2.1784 N   0  0  0  0  0  0  0  0  0  0  0  0
    0.1010   -1.7411    3.0354 H   0  0  0  0  0  0  0  0  0  0  0  0
    0.8787   -1.5020    1.5438 H   0  0  0  0  0  0  0  0  0  0  0  0
   -0.8017   -1.2707    1.6853 H   0  0  0  0  0  0  0  0  0  0  0  0
    0.2848   -0.2006    2.3677 H   0  0  0  0  0  0  0  0  0  0  0  0
    3.1244   -0.8636   -0.2732 S   0  0  0  0  0  0  0  0  0  0  0  0
    2.1502   -1.6951    0.4382 O   0  0  0  0  0  0  0  0  0  0  0  0
    4.3991   -1.4021   -0.6276 O   0  0  0  0  0  0  0  0  0  0  0  0
    3.3791    0.4419    0.5876 O   0  0  0  0  0  0  0  0  0  0  0  0
    2.4362   -0.3258   -1.5894 O   0  0  0  0  0  0  0  0  0  0  0  0
    1.5069   -0.0323   -1.4124 H   0  0  0  0  0  0  0  0  0  0  0  0
    2.5266    0.8559    0.8702 H   0  0  0  0  0  0  0  0  0  0  0  0
   -3.1631   -0.8417   -0.2149 S   0  0  0  0  0  0  0  0  0  0  0  0
   -2.3107   -1.1909    0.9241 O   0  0  0  0  0  0  0  0  0  0  0  0
   -4.3118   -1.6356   -0.5174 O   0  0  0  0  0  0  0  0  0  0  0  0
   -2.2553   -0.7874   -1.5075 O   0  0  0  0  0  0  0  0  0  0  0  0
   -3.6389    0.6514   -0.0181 O   0  0  0  0  0  0  0  0  0  0  0  0
   -2.8781    1.2184    0.2601 H   0  0  0  0  0  0  0  0  0  0  0  0
   -1.4126   -0.2993   -1.3294 H   0  0  0  0  0  0  0  0  0  0  0  0
   -0.0277    1.6813    0.1408 S   0  0  0  0  0  0  0  0  0  0  0  0
    0.8967    1.3595    1.2442 O   0  0  0  0  0  0  0  0  0  0  0  0
   -0.0181    0.6195   -0.9107 O   0  0  0  0  0  0  0  0  0  0  0  0
   -1.3842    2.0406    0.5539 O   0  0  0  0  0  0  0  0  0  0  0  0
    0.6558    2.9731   -0.5138 O   0  0  0  0  0  0  0  0  0  0  0  0
    0.0939    3.3236   -1.2206 H   0  0  0  0  0  0  0  0  0  0  0  0
  1  5  1  0  0  0  0
  1  2  1  0  0  0  0
  3  1  1  0  0  0  0
  4  1  1  0  0  0  0
  6  7  2  0  0  0  0
  6  9  1  0  0  0  0
  8  6  2  0  0  0  0
  9 12  1  0  0  0  0
 10 11  1  0  0  0  0
 10  6  1  0  0  0  0
 13 17  1  0  0  0  0
 13 14  2  0  0  0  0
 15 13  2  0  0  0  0
 16 19  1  0  0  0  0
 16 13  1  0  0  0  0
 17 18  1  0  0  0  0
 20 23  2  0  0  0  0
 20 21  1  0  0  0  0
 22 20  2  0  0  0  0
 24 20  1  0  0  0  0
 25 24  1  0  0  0  0
M  RAD  1  21   2
M  END
$$$$
