3sa_2a.sdf 
 OpenBabel09082008333D
Besel et al., Gaussian 16, # opt freq 6-31++g(d,p) wb97xd
 29 24  0  0  0  0  0  0  0  0999 V2000
    0.1350   -1.8554   -1.5303 N   0  0  0  0  0  0  0  0  0  0  0  0
   -0.6714   -1.9629   -0.8759 H   0  0  0  0  0  0  0  0  0  0  0  0
    0.1690   -2.6374   -2.1790 H   0  0  0  0  0  0  0  0  0  0  0  0
   -0.0215   -0.9720   -2.0335 H   0  0  0  0  0  0  0  0  0  0  0  0
    1.0397   -1.7755   -1.0225 H   0  0  0  0  0  0  0  0  0  0  0  0
   -1.7857    1.9796    2.0346 N   0  0  0  0  0  0  0  0  0  0  0  0
   -2.2586    1.0525    1.8444 H   0  0  0  0  0  0  0  0  0  0  0  0
   -1.0201    1.8233    2.6870 H   0  0  0  0  0  0  0  0  0  0  0  0
   -1.3775    2.3529    1.1426 H   0  0  0  0  0  0  0  0  0  0  0  0
   -2.4509    2.6394    2.4294 H   0  0  0  0  0  0  0  0  0  0  0  0
    3.4049   -0.7414    0.4412 S   0  0  0  0  0  0  0  0  0  0  0  0
    4.5879   -1.2600    1.0573 O   0  0  0  0  0  0  0  0  0  0  0  0
    2.6592   -1.5724   -0.5090 O   0  0  0  0  0  0  0  0  0  0  0  0
    2.4051   -0.3009    1.5829 O   0  0  0  0  0  0  0  0  0  0  0  0
    3.7879    0.6092   -0.2760 O   0  0  0  0  0  0  0  0  0  0  0  0
    2.9956    1.0246   -0.7114 H   0  0  0  0  0  0  0  0  0  0  0  0
    1.5346   -0.0170    1.1808 H   0  0  0  0  0  0  0  0  0  0  0  0
   -3.0634   -0.8129    0.1782 S   0  0  0  0  0  0  0  0  0  0  0  0
   -2.2245   -1.9808   -0.1442 O   0  0  0  0  0  0  0  0  0  0  0  0
   -2.9641   -0.3974    1.5949 O   0  0  0  0  0  0  0  0  0  0  0  0
   -2.9461    0.3139   -0.7627 O   0  0  0  0  0  0  0  0  0  0  0  0
   -4.5898   -1.2915   -0.0400 O   0  0  0  0  0  0  0  0  0  0  0  0
   -4.7536   -2.0643    0.5187 H   0  0  0  0  0  0  0  0  0  0  0  0
   -1.5697    0.7388   -1.5541 H   0  0  0  0  0  0  0  0  0  0  0  0
    0.2258    1.5204   -0.6801 S   0  0  0  0  0  0  0  0  0  0  0  0
   -0.6368    0.8855   -1.8819 O   0  0  0  0  0  0  0  0  0  0  0  0
    1.5516    1.7029   -1.2717 O   0  0  0  0  0  0  0  0  0  0  0  0
   -0.4702    2.7421   -0.2456 O   0  0  0  0  0  0  0  0  0  0  0  0
    0.1978    0.4833    0.3980 O   0  0  0  0  0  0  0  0  0  0  0  0
  1  5  1  0  0  0  0
  1  2  1  0  0  0  0
  3  1  1  0  0  0  0
  4  1  1  0  0  0  0
  6 10  1  0  0  0  0
  6  8  1  0  0  0  0
  7  6  1  0  0  0  0
  9  6  1  0  0  0  0
 11 12  2  0  0  0  0
 11 14  1  0  0  0  0
 13 11  2  0  0  0  0
 15 11  1  0  0  0  0
 16 15  1  0  0  0  0
 17 14  1  0  0  0  0
 18 20  1  0  0  0  0
 19 18  2  0  0  0  0
 21 18  2  0  0  0  0
 22 18  1  0  0  0  0
 22 23  1  0  0  0  0
 25 28  2  0  0  0  0
 25 29  1  0  0  0  0
 26 24  1  0  0  0  0
 26 25  1  0  0  0  0
 27 25  2  0  0  0  0
M  RAD  2  20   2  29   2
M  END
$$$$
