4a.log
 OpenBabel02271919093D
Gaussian opt/gaussian/g09/g09 # opt freq wb97xd/6-31++g(d,p) geom=connectivity
 16 12  0  0  0  0  0  0  0  0999 V2000
    2.1714    0.1470   -0.1483 N   0  0  0  0  0  0  0  0  0  0  0  0
    0.1470   -2.1706    0.1481 N   0  0  0  0  0  0  0  0  0  0  0  0
    0.2553   -2.6152    1.0539 H   0  0  0  0  0  0  0  0  0  0  0  0
    0.8993   -1.4773    0.0475 H   0  0  0  0  0  0  0  0  0  0  0  0
    0.2880   -2.8890   -0.5546 H   0  0  0  0  0  0  0  0  0  0  0  0
    1.4781    0.8996   -0.0503 H   0  0  0  0  0  0  0  0  0  0  0  0
    2.8871    0.2877    0.5571 H   0  0  0  0  0  0  0  0  0  0  0  0
    2.6196    0.2549   -1.0524 H   0  0  0  0  0  0  0  0  0  0  0  0
   -0.1473    2.1706    0.1481 N   0  0  0  0  0  0  0  0  0  0  0  0
   -0.2524    2.6188    1.0526 H   0  0  0  0  0  0  0  0  0  0  0  0
   -0.9000    1.4772    0.0524 H   0  0  0  0  0  0  0  0  0  0  0  0
   -0.2907    2.8865   -0.5567 H   0  0  0  0  0  0  0  0  0  0  0  0
   -2.1712   -0.1472   -0.1479 N   0  0  0  0  0  0  0  0  0  0  0  0
   -2.6161   -0.2524   -1.0540 H   0  0  0  0  0  0  0  0  0  0  0  0
   -2.8895   -0.2903    0.5545 H   0  0  0  0  0  0  0  0  0  0  0  0
   -1.4782   -0.9000   -0.0497 H   0  0  0  0  0  0  0  0  0  0  0  0
  1  6  1  0  0  0  0
  1  7  1  0  0  0  0
  2  3  1  0  0  0  0
  4  2  1  0  0  0  0
  5  2  1  0  0  0  0
  8  1  1  0  0  0  0
  9 10  1  0  0  0  0
 11  9  1  0  0  0  0
 12  9  1  0  0  0  0
 13 16  1  0  0  0  0
 13 15  1  0  0  0  0
 14 13  1  0  0  0  0
M  END
$$$$
