4sa_3a.sdf 
 OpenBabel09082008333D
Besel et al., Gaussian 16, # opt freq 6-31++g(d,p) wb97xd
 40 33  0  0  0  0  0  0  0  0999 V2000
    1.5402    2.8501   -0.4872 N   0  0  0  0  0  0  0  0  0  0  0  0
    1.8464    3.8184   -0.4833 H   0  0  0  0  0  0  0  0  0  0  0  0
    1.4375    2.4789    0.4744 H   0  0  0  0  0  0  0  0  0  0  0  0
    0.6207    2.7471   -0.9498 H   0  0  0  0  0  0  0  0  0  0  0  0
    1.1920   -2.9057    0.9248 N   0  0  0  0  0  0  0  0  0  0  0  0
    0.3040   -2.9917    0.4037 H   0  0  0  0  0  0  0  0  0  0  0  0
    1.8573   -2.3626    0.3192 H   0  0  0  0  0  0  0  0  0  0  0  0
    1.0327   -2.3479    1.7859 H   0  0  0  0  0  0  0  0  0  0  0  0
    1.5668   -3.8237    1.1480 H   0  0  0  0  0  0  0  0  0  0  0  0
    0.2128   -0.5318   -2.0923 N   0  0  0  0  0  0  0  0  0  0  0  0
   -0.3967   -1.3292   -1.8657 H   0  0  0  0  0  0  0  0  0  0  0  0
    0.3714   -0.4786   -3.0950 H   0  0  0  0  0  0  0  0  0  0  0  0
   -0.2340    0.3406   -1.7648 H   0  0  0  0  0  0  0  0  0  0  0  0
    1.1228   -0.6956   -1.5945 H   0  0  0  0  0  0  0  0  0  0  0  0
    3.5948   -0.2828   -0.8672 S   0  0  0  0  0  0  0  0  0  0  0  0
    2.4643   -1.2851   -0.7913 O   0  0  0  0  0  0  0  0  0  0  0  0
    4.8344   -0.8193   -1.3690 O   0  0  0  0  0  0  0  0  0  0  0  0
    3.8841    0.1305    0.6521 O   0  0  0  0  0  0  0  0  0  0  0  0
    3.0706    0.9242   -1.5619 O   0  0  0  0  0  0  0  0  0  0  0  0
    2.2328    2.2159   -0.9599 H   0  0  0  0  0  0  0  0  0  0  0  0
    3.0589    0.4538    1.0848 H   0  0  0  0  0  0  0  0  0  0  0  0
   -2.4802   -2.3372   -0.4466 S   0  0  0  0  0  0  0  0  0  0  0  0
   -3.5308   -3.3097   -0.4568 O   0  0  0  0  0  0  0  0  0  0  0  0
   -1.1178   -2.7739   -0.8117 O   0  0  0  0  0  0  0  0  0  0  0  0
   -2.4234   -1.6543    0.9604 O   0  0  0  0  0  0  0  0  0  0  0  0
   -2.7940   -1.1443   -1.4346 O   0  0  0  0  0  0  0  0  0  0  0  0
   -2.9464   -0.2627   -0.9696 H   0  0  0  0  0  0  0  0  0  0  0  0
   -1.6225   -1.0363    0.9979 H   0  0  0  0  0  0  0  0  0  0  0  0
    0.4250    0.2290    2.0076 S   0  0  0  0  0  0  0  0  0  0  0  0
    1.5507    1.1322    1.6553 O   0  0  0  0  0  0  0  0  0  0  0  0
   -0.2885   -0.2191    0.7711 O   0  0  0  0  0  0  0  0  0  0  0  0
    0.8104   -0.8922    2.8635 O   0  0  0  0  0  0  0  0  0  0  0  0
   -0.6193    1.0815    2.8353 O   0  0  0  0  0  0  0  0  0  0  0  0
   -1.0332    1.7363    2.2169 H   0  0  0  0  0  0  0  0  0  0  0  0
   -2.0031    2.2444   -0.4243 S   0  0  0  0  0  0  0  0  0  0  0  0
   -0.9644    1.9959   -1.4505 O   0  0  0  0  0  0  0  0  0  0  0  0
   -2.9800    1.1523   -0.2747 O   0  0  0  0  0  0  0  0  0  0  0  0
   -1.4518    2.7273    0.8541 O   0  0  0  0  0  0  0  0  0  0  0  0
   -2.8040    3.4885   -1.0653 O   0  0  0  0  0  0  0  0  0  0  0  0
   -3.5441    3.7177   -0.4847 H   0  0  0  0  0  0  0  0  0  0  0  0
  1  2  1  0  0  0  0
  1  3  1  0  0  0  0
  4  1  1  0  0  0  0
  5  9  1  0  0  0  0
  5  8  1  0  0  0  0
  6  5  1  0  0  0  0
  7  5  1  0  0  0  0
 10 11  1  0  0  0  0
 10 13  1  0  0  0  0
 10 14  1  0  0  0  0
 12 10  1  0  0  0  0
 15 16  1  0  0  0  0
 15 18  1  0  0  0  0
 17 15  2  0  0  0  0
 18 21  1  0  0  0  0
 19 15  2  0  0  0  0
 20  1  1  0  0  0  0
 22 25  1  0  0  0  0
 23 22  2  0  0  0  0
 24 22  2  0  0  0  0
 25 28  1  0  0  0  0
 26 27  1  0  0  0  0
 26 22  1  0  0  0  0
 29 33  1  0  0  0  0
 29 32  1  0  0  0  0
 30 29  2  0  0  0  0
 31 29  2  0  0  0  0
 34 33  1  0  0  0  0
 35 37  2  0  0  0  0
 35 38  1  0  0  0  0
 36 35  2  0  0  0  0
 39 40  1  0  0  0  0
 39 35  1  0  0  0  0
M  RAD  3  16   2  32   2  38   2
M  END
$$$$
