4sa_5a_01.sdf 
 OpenBabel09082008333D
Besel et al., Gaussian 16, # opt freq 6-31++g(d,p) wb97xd
 48 39  0  0  0  0  0  0  0  0999 V2000
   -4.4996   -0.0471    0.5118 N   0  0  0  0  0  0  0  0  0  0  0  0
   -5.0362    0.5089    1.1719 H   0  0  0  0  0  0  0  0  0  0  0  0
   -3.7617   -0.5750    1.0326 H   0  0  0  0  0  0  0  0  0  0  0  0
   -5.0917   -0.6919   -0.0061 H   0  0  0  0  0  0  0  0  0  0  0  0
   -3.9997    0.5712   -0.1995 H   0  0  0  0  0  0  0  0  0  0  0  0
    1.8726   -0.3460    2.7612 N   0  0  0  0  0  0  0  0  0  0  0  0
    0.9739   -0.2303    3.2579 H   0  0  0  0  0  0  0  0  0  0  0  0
    2.6474   -0.4266    3.4134 H   0  0  0  0  0  0  0  0  0  0  0  0
    1.8017   -1.2011    2.1839 H   0  0  0  0  0  0  0  0  0  0  0  0
    2.0303    0.4767    2.1295 H   0  0  0  0  0  0  0  0  0  0  0  0
   -1.3846   -2.7314   -0.3351 N   0  0  0  0  0  0  0  0  0  0  0  0
   -1.5547   -2.3050    0.5943 H   0  0  0  0  0  0  0  0  0  0  0  0
   -1.4776   -3.7411   -0.2825 H   0  0  0  0  0  0  0  0  0  0  0  0
   -2.0877   -2.2995   -0.9859 H   0  0  0  0  0  0  0  0  0  0  0  0
   -0.4377   -2.4769   -0.6705 H   0  0  0  0  0  0  0  0  0  0  0  0
   -1.3854    2.8306    0.1334 N   0  0  0  0  0  0  0  0  0  0  0  0
   -0.3962    2.5637   -0.1133 H   0  0  0  0  0  0  0  0  0  0  0  0
   -1.4846    3.8414    0.1186 H   0  0  0  0  0  0  0  0  0  0  0  0
   -2.0338    2.3756   -0.5496 H   0  0  0  0  0  0  0  0  0  0  0  0
   -1.6339    2.4461    1.0603 H   0  0  0  0  0  0  0  0  0  0  0  0
    0.9595    0.3140   -2.8197 N   0  0  0  0  0  0  0  0  0  0  0  0
    1.6769    0.5004   -3.5145 H   0  0  0  0  0  0  0  0  0  0  0  0
    1.0133    1.0144   -2.0420 H   0  0  0  0  0  0  0  0  0  0  0  0
    0.0020    0.3548   -3.2195 H   0  0  0  0  0  0  0  0  0  0  0  0
    1.0914   -0.6168   -2.3922 H   0  0  0  0  0  0  0  0  0  0  0  0
    2.3940    2.3893   -0.0693 S   0  0  0  0  0  0  0  0  0  0  0  0
    2.4618    1.8950    1.3212 O   0  0  0  0  0  0  0  0  0  0  0  0
    2.7808    3.7683   -0.2739 O   0  0  0  0  0  0  0  0  0  0  0  0
    3.4342    1.5076   -0.9291 O   0  0  0  0  0  0  0  0  0  0  0  0
    1.0604    2.0459   -0.6879 O   0  0  0  0  0  0  0  0  0  0  0  0
   -0.6917    0.0782    0.3046 H   0  0  0  0  0  0  0  0  0  0  0  0
    3.3702    0.5696   -0.6445 H   0  0  0  0  0  0  0  0  0  0  0  0
    2.2357   -2.2430   -0.2520 S   0  0  0  0  0  0  0  0  0  0  0  0
    1.5877   -2.6304    1.0161 O   0  0  0  0  0  0  0  0  0  0  0  0
    1.2558   -2.1975   -1.3687 O   0  0  0  0  0  0  0  0  0  0  0  0
    3.1058   -1.0736   -0.1555 O   0  0  0  0  0  0  0  0  0  0  0  0
    3.2780   -3.4259   -0.6229 O   0  0  0  0  0  0  0  0  0  0  0  0
    2.8092   -4.2711   -0.6190 H   0  0  0  0  0  0  0  0  0  0  0  0
   -2.2887    0.0804   -1.9357 S   0  0  0  0  0  0  0  0  0  0  0  0
   -1.8728    0.3479   -3.3251 O   0  0  0  0  0  0  0  0  0  0  0  0
   -1.0308   -0.0708   -1.1010 O   0  0  0  0  0  0  0  0  0  0  0  0
   -3.0870    1.2391   -1.3501 O   0  0  0  0  0  0  0  0  0  0  0  0
   -3.1060   -1.1668   -1.7702 O   0  0  0  0  0  0  0  0  0  0  0  0
   -1.5642   -0.0435    2.3106 S   0  0  0  0  0  0  0  0  0  0  0  0
   -0.3692    0.1103    1.2785 O   0  0  0  0  0  0  0  0  0  0  0  0
   -0.8856   -0.2481    3.5905 O   0  0  0  0  0  0  0  0  0  0  0  0
   -2.3879    1.1833    2.2077 O   0  0  0  0  0  0  0  0  0  0  0  0
   -2.3618   -1.2266    1.8394 O   0  0  0  0  0  0  0  0  0  0  0  0
  1  3  1  0  0  0  0
  1  2  1  0  0  0  0
  4  1  1  0  0  0  0
  5  1  1  0  0  0  0
  6  7  1  0  0  0  0
  6  8  1  0  0  0  0
  9  6  1  0  0  0  0
 10  6  1  0  0  0  0
 11 13  1  0  0  0  0
 11 12  1  0  0  0  0
 14 11  1  0  0  0  0
 15 11  1  0  0  0  0
 16 20  1  0  0  0  0
 17 16  1  0  0  0  0
 18 16  1  0  0  0  0
 19 16  1  0  0  0  0
 21 25  1  0  0  0  0
 21 23  1  0  0  0  0
 22 21  1  0  0  0  0
 24 21  1  0  0  0  0
 26 27  1  0  0  0  0
 28 26  2  0  0  0  0
 29 32  1  0  0  0  0
 29 26  1  0  0  0  0
 30 26  2  0  0  0  0
 31 45  1  0  0  0  0
 33 36  2  0  0  0  0
 33 34  1  0  0  0  0
 35 33  2  0  0  0  0
 37 38  1  0  0  0  0
 37 33  1  0  0  0  0
 39 43  2  0  0  0  0
 39 42  1  0  0  0  0
 39 41  1  0  0  0  0
 40 39  2  0  0  0  0
 44 46  1  0  0  0  0
 45 44  1  0  0  0  0
 47 44  2  0  0  0  0
 48 44  2  0  0  0  0
M  RAD  5  27   2  34   2  41   2  42   2  46   2
M  END
$$$$
4sa_5a_02.sdf 
 OpenBabel09082008333D
Besel et al., Gaussian 16, # opt freq 6-31++g(d,p) wb97xd
 48 39  0  0  0  0  0  0  0  0999 V2000
    4.5073    0.0790    0.4567 N   0  0  0  0  0  0  0  0  0  0  0  0
    5.0848    0.7343   -0.0642 H   0  0  0  0  0  0  0  0  0  0  0  0
    5.0572   -0.4756    1.1069 H   0  0  0  0  0  0  0  0  0  0  0  0
    3.7683    0.5932    0.9896 H   0  0  0  0  0  0  0  0  0  0  0  0
    4.0035   -0.5394   -0.2501 H   0  0  0  0  0  0  0  0  0  0  0  0
   -1.8131    0.2343    2.8287 N   0  0  0  0  0  0  0  0  0  0  0  0
   -1.9907   -0.5853    2.1999 H   0  0  0  0  0  0  0  0  0  0  0  0
   -0.9031    0.1179    3.3050 H   0  0  0  0  0  0  0  0  0  0  0  0
   -1.7468    1.0847    2.2409 H   0  0  0  0  0  0  0  0  0  0  0  0
   -2.5720    0.3247    3.4978 H   0  0  0  0  0  0  0  0  0  0  0  0
    1.3363    2.7471   -0.3226 N   0  0  0  0  0  0  0  0  0  0  0  0
    2.0520    2.3441   -0.9754 H   0  0  0  0  0  0  0  0  0  0  0  0
    1.5021    2.3026    0.5976 H   0  0  0  0  0  0  0  0  0  0  0  0
    1.4026    3.7576   -0.2451 H   0  0  0  0  0  0  0  0  0  0  0  0
    0.3996    2.4805   -0.6738 H   0  0  0  0  0  0  0  0  0  0  0  0
    1.4101   -2.8380    0.0900 N   0  0  0  0  0  0  0  0  0  0  0  0
    1.6802   -2.4758    1.0197 H   0  0  0  0  0  0  0  0  0  0  0  0
    1.5268   -3.8459    0.0422 H   0  0  0  0  0  0  0  0  0  0  0  0
    0.4123   -2.5819   -0.1223 H   0  0  0  0  0  0  0  0  0  0  0  0
    2.0344   -2.3525   -0.5964 H   0  0  0  0  0  0  0  0  0  0  0  0
   -0.9811   -0.3198   -2.8174 N   0  0  0  0  0  0  0  0  0  0  0  0
   -1.7005   -0.5121   -3.5083 H   0  0  0  0  0  0  0  0  0  0  0  0
   -1.1298    0.6006   -2.3729 H   0  0  0  0  0  0  0  0  0  0  0  0
   -1.0158   -1.0312   -2.0497 H   0  0  0  0  0  0  0  0  0  0  0  0
   -0.0248   -0.3338   -3.2241 H   0  0  0  0  0  0  0  0  0  0  0  0
   -2.4201   -2.3675   -0.1046 S   0  0  0  0  0  0  0  0  0  0  0  0
   -2.4911   -1.9212    1.3020 O   0  0  0  0  0  0  0  0  0  0  0  0
   -2.8714   -3.7163   -0.3686 O   0  0  0  0  0  0  0  0  0  0  0  0
   -3.4026   -1.4027   -0.9459 O   0  0  0  0  0  0  0  0  0  0  0  0
   -1.0637   -2.0654   -0.6915 O   0  0  0  0  0  0  0  0  0  0  0  0
    0.6970   -0.1118    0.3074 H   0  0  0  0  0  0  0  0  0  0  0  0
   -3.3441   -0.4829   -0.6010 H   0  0  0  0  0  0  0  0  0  0  0  0
   -2.2266    2.2561   -0.1859 S   0  0  0  0  0  0  0  0  0  0  0  0
   -1.3127    2.1733   -1.3537 O   0  0  0  0  0  0  0  0  0  0  0  0
   -3.2457    1.1957   -0.1743 O   0  0  0  0  0  0  0  0  0  0  0  0
   -1.5073    2.4498    1.0788 O   0  0  0  0  0  0  0  0  0  0  0  0
   -3.0415    3.6464   -0.3521 O   0  0  0  0  0  0  0  0  0  0  0  0
   -3.7003    3.5362   -1.0515 H   0  0  0  0  0  0  0  0  0  0  0  0
    1.6112   -0.0156    2.2947 S   0  0  0  0  0  0  0  0  0  0  0  0
    2.4683   -1.2172    2.1632 O   0  0  0  0  0  0  0  0  0  0  0  0
    0.4007   -0.2011    1.2855 O   0  0  0  0  0  0  0  0  0  0  0  0
    0.9532    0.1529    3.5910 O   0  0  0  0  0  0  0  0  0  0  0  0
    2.3606    1.1956    1.8202 O   0  0  0  0  0  0  0  0  0  0  0  0
    2.2569   -0.0389   -1.9514 S   0  0  0  0  0  0  0  0  0  0  0  0
    1.0074    0.0988   -1.1016 O   0  0  0  0  0  0  0  0  0  0  0  0
    1.8276   -0.2947   -3.3399 O   0  0  0  0  0  0  0  0  0  0  0  0
    3.0726    1.2077   -1.7833 O   0  0  0  0  0  0  0  0  0  0  0  0
    3.0643   -1.2028   -1.3882 O   0  0  0  0  0  0  0  0  0  0  0  0
  1  4  1  0  0  0  0
  1  3  1  0  0  0  0
  2  1  1  0  0  0  0
  5  1  1  0  0  0  0
  6  8  1  0  0  0  0
  6 10  1  0  0  0  0
  7  6  1  0  0  0  0
  9  6  1  0  0  0  0
 11 14  1  0  0  0  0
 11 13  1  0  0  0  0
 12 11  1  0  0  0  0
 15 11  1  0  0  0  0
 16 17  1  0  0  0  0
 18 16  1  0  0  0  0
 19 16  1  0  0  0  0
 20 16  1  0  0  0  0
 21 23  1  0  0  0  0
 21 24  1  0  0  0  0
 22 21  1  0  0  0  0
 25 21  1  0  0  0  0
 26 27  1  0  0  0  0
 28 26  2  0  0  0  0
 29 32  1  0  0  0  0
 29 26  1  0  0  0  0
 30 26  2  0  0  0  0
 31 41  1  0  0  0  0
 33 35  2  0  0  0  0
 33 36  1  0  0  0  0
 34 33  2  0  0  0  0
 37 33  1  0  0  0  0
 38 37  1  0  0  0  0
 39 42  1  0  0  0  0
 40 39  2  0  0  0  0
 41 39  1  0  0  0  0
 43 39  2  0  0  0  0
 44 47  2  0  0  0  0
 44 48  1  0  0  0  0
 44 45  1  0  0  0  0
 46 44  2  0  0  0  0
M  RAD  5  27   2  36   2  42   2  45   2  48   2
M  END
$$$$
