6sa_5a.sdf 
 OpenBabel09082008333D
Besel et al., Gaussian 16, # opt freq 6-31++g(d,p) wb97xd
 62 51  0  0  0  0  0  0  0  0999 V2000
    4.2075   -0.6435   -2.1045 N   0  0  0  0  0  0  0  0  0  0  0  0
    4.3663   -0.9040   -1.1164 H   0  0  0  0  0  0  0  0  0  0  0  0
    5.0908   -0.5723   -2.6012 H   0  0  0  0  0  0  0  0  0  0  0  0
    3.5824   -1.3601   -2.5340 H   0  0  0  0  0  0  0  0  0  0  0  0
    3.7104    0.2689   -2.1312 H   0  0  0  0  0  0  0  0  0  0  0  0
    2.0705   -2.8077    1.5443 N   0  0  0  0  0  0  0  0  0  0  0  0
    2.9299   -2.3017    1.2713 H   0  0  0  0  0  0  0  0  0  0  0  0
    1.3975   -2.1414    1.9764 H   0  0  0  0  0  0  0  0  0  0  0  0
    1.6351   -3.2071    0.6899 H   0  0  0  0  0  0  0  0  0  0  0  0
    2.2841   -3.5453    2.2100 H   0  0  0  0  0  0  0  0  0  0  0  0
   -1.7223    0.3850   -1.8328 N   0  0  0  0  0  0  0  0  0  0  0  0
   -1.0139   -0.1295   -2.3698 H   0  0  0  0  0  0  0  0  0  0  0  0
   -1.7562    1.3802   -2.0602 H   0  0  0  0  0  0  0  0  0  0  0  0
   -2.6424   -0.0691   -1.9370 H   0  0  0  0  0  0  0  0  0  0  0  0
   -1.4545    0.2819   -0.8423 H   0  0  0  0  0  0  0  0  0  0  0  0
    0.6223    1.4392    2.0027 N   0  0  0  0  0  0  0  0  0  0  0  0
    0.1754    0.6189    2.4424 H   0  0  0  0  0  0  0  0  0  0  0  0
    1.6101    1.4369    2.2751 H   0  0  0  0  0  0  0  0  0  0  0  0
    0.5856    1.2994    0.9778 H   0  0  0  0  0  0  0  0  0  0  0  0
    0.1526    2.3256    2.2022 H   0  0  0  0  0  0  0  0  0  0  0  0
   -2.1114   -3.3388   -1.0319 N   0  0  0  0  0  0  0  0  0  0  0  0
   -1.3481   -2.8770   -1.5625 H   0  0  0  0  0  0  0  0  0  0  0  0
   -2.3067   -4.2556   -1.4230 H   0  0  0  0  0  0  0  0  0  0  0  0
   -1.8004   -3.4173   -0.0397 H   0  0  0  0  0  0  0  0  0  0  0  0
   -2.9425   -2.7225   -1.0844 H   0  0  0  0  0  0  0  0  0  0  0  0
    1.6789    2.2343   -1.4029 S   0  0  0  0  0  0  0  0  0  0  0  0
    2.6400    1.6662   -2.3544 O   0  0  0  0  0  0  0  0  0  0  0  0
    0.8555    3.3382   -1.9035 O   0  0  0  0  0  0  0  0  0  0  0  0
    0.8029    1.1624   -0.8014 O   0  0  0  0  0  0  0  0  0  0  0  0
    2.4951    2.8457   -0.1832 O   0  0  0  0  0  0  0  0  0  0  0  0
    3.2758    2.2668    0.0269 H   0  0  0  0  0  0  0  0  0  0  0  0
    1.2777   -0.3428   -0.8733 H   0  0  0  0  0  0  0  0  0  0  0  0
   -4.6489   -0.6830   -0.1738 S   0  0  0  0  0  0  0  0  0  0  0  0
   -4.3034    0.7385    0.0237 O   0  0  0  0  0  0  0  0  0  0  0  0
   -3.9988   -1.2743   -1.3654 O   0  0  0  0  0  0  0  0  0  0  0  0
   -4.5273   -1.5061    1.0393 O   0  0  0  0  0  0  0  0  0  0  0  0
   -6.2036   -0.7003   -0.5921 O   0  0  0  0  0  0  0  0  0  0  0  0
   -6.7157   -0.2486    0.0941 H   0  0  0  0  0  0  0  0  0  0  0  0
   -3.2656   -1.3342    2.1788 H   0  0  0  0  0  0  0  0  0  0  0  0
   -1.9616    3.4150    0.4128 S   0  0  0  0  0  0  0  0  0  0  0  0
   -0.7664    3.8519    1.1121 O   0  0  0  0  0  0  0  0  0  0  0  0
   -3.2220    4.0872    0.5641 O   0  0  0  0  0  0  0  0  0  0  0  0
   -1.6402    3.3409   -1.1440 O   0  0  0  0  0  0  0  0  0  0  0  0
   -2.1030    1.8849    0.8060 O   0  0  0  0  0  0  0  0  0  0  0  0
   -2.9990    1.4910    0.5929 H   0  0  0  0  0  0  0  0  0  0  0  0
   -0.6565    3.4322   -1.3359 H   0  0  0  0  0  0  0  0  0  0  0  0
    4.2883    0.0708    1.3738 S   0  0  0  0  0  0  0  0  0  0  0  0
    4.4234   -1.2664    0.7373 O   0  0  0  0  0  0  0  0  0  0  0  0
    4.4638    1.1454    0.3703 O   0  0  0  0  0  0  0  0  0  0  0  0
    3.1138    0.1902    2.2324 O   0  0  0  0  0  0  0  0  0  0  0  0
    5.5209    0.2179    2.4050 O   0  0  0  0  0  0  0  0  0  0  0  0
    6.3451    0.3052    1.9064 H   0  0  0  0  0  0  0  0  0  0  0  0
    1.1985   -2.3412   -1.8419 S   0  0  0  0  0  0  0  0  0  0  0  0
    1.7084   -1.2418   -0.7834 O   0  0  0  0  0  0  0  0  0  0  0  0
    2.2533   -2.4175   -2.8638 O   0  0  0  0  0  0  0  0  0  0  0  0
    1.0552   -3.5534   -1.0151 O   0  0  0  0  0  0  0  0  0  0  0  0
   -0.1038   -1.8631   -2.3735 O   0  0  0  0  0  0  0  0  0  0  0  0
   -1.2057   -1.6711    1.7935 S   0  0  0  0  0  0  0  0  0  0  0  0
   -1.2265   -3.1362    1.6054 O   0  0  0  0  0  0  0  0  0  0  0  0
   -2.4311   -1.2468    2.7077 O   0  0  0  0  0  0  0  0  0  0  0  0
   -0.0268   -1.2178    2.5733 O   0  0  0  0  0  0  0  0  0  0  0  0
   -1.3513   -0.9601    0.5077 O   0  0  0  0  0  0  0  0  0  0  0  0
  1  2  1  0  0  0  0
  3  1  1  0  0  0  0
  4  1  1  0  0  0  0
  5  1  1  0  0  0  0
  6  8  1  0  0  0  0
  6 10  1  0  0  0  0
  7  6  1  0  0  0  0
  9  6  1  0  0  0  0
 11 15  1  0  0  0  0
 12 11  1  0  0  0  0
 13 11  1  0  0  0  0
 14 11  1  0  0  0  0
 16 20  1  0  0  0  0
 16 18  1  0  0  0  0
 16 17  1  0  0  0  0
 19 16  1  0  0  0  0
 21 24  1  0  0  0  0
 22 21  1  0  0  0  0
 23 21  1  0  0  0  0
 25 21  1  0  0  0  0
 26 29  1  0  0  0  0
 26 30  1  0  0  0  0
 27 26  2  0  0  0  0
 28 26  2  0  0  0  0
 30 31  1  0  0  0  0
 32 54  1  0  0  0  0
 33 34  2  0  0  0  0
 33 36  1  0  0  0  0
 35 33  2  0  0  0  0
 37 33  1  0  0  0  0
 37 38  1  0  0  0  0
 39 60  1  0  0  0  0
 40 42  2  0  0  0  0
 40 44  1  0  0  0  0
 40 41  2  0  0  0  0
 43 40  1  0  0  0  0
 45 44  1  0  0  0  0
 46 43  1  0  0  0  0
 47 50  1  0  0  0  0
 47 51  1  0  0  0  0
 48 47  2  0  0  0  0
 49 47  2  0  0  0  0
 52 51  1  0  0  0  0
 53 56  1  0  0  0  0
 53 54  1  0  0  0  0
 55 53  2  0  0  0  0
 57 53  2  0  0  0  0
 58 61  1  0  0  0  0
 58 60  1  0  0  0  0
 59 58  2  0  0  0  0
 62 58  2  0  0  0  0
M  RAD  5  29   2  36   2  50   2  56   2  61   2
M  END
$$$$
