33
2sa1fa1dma1am-2
S       -1.84717200      -1.72094100      -0.14815500
O       -0.80111800      -2.64098300       0.33211800
O       -2.56978500      -0.98113500       0.89373700
O       -1.37674000      -0.84068700      -1.24623200
O       -2.99695000      -2.66378200      -0.79017500
H       -2.57356800      -3.29533000      -1.38786100
S        1.01713800       1.37829400      -0.11453200
O        0.40258900       0.94380400       1.17258500
O        0.12233900       2.31368800      -0.82055000
O        2.41373400       1.80727700       0.01356500
O        1.13857400       0.04780900      -1.00935900
H        0.23099000      -0.30246500      -1.20736900
H        5.57108700      -1.27499500      -0.70842000
H        3.67868600       0.85355900      -0.44690800
C        4.65422500      -0.81350000      -0.32056800
O        4.50666600       0.39914300      -0.77336300
O        3.91247300      -1.41313800       0.44218500
N       -2.37753200       1.71899400       0.19010400
C       -3.44855200       1.81830300      -0.82277300
C       -2.51156900       2.63781000       1.33920800
H       -2.34741100       0.73876300       0.53516100
H       -3.44557100       2.82095900      -1.25254700
H       -3.24756000       1.07655100      -1.59585800
H       -4.41036000       1.61266000      -0.35101000
H       -2.50790600       3.66665400       0.97652800
H       -3.44473900       2.42702700       1.86368900
H       -1.65890900       2.47450000       1.99803700
H       -1.45588200       1.90475300      -0.26462400
N        1.39980400      -1.54183300       1.62496500
H        1.53064500      -1.91825800       2.55905400
H        0.68320200      -2.09191100       1.11270800
H        1.03783900      -0.55964700       1.65890400
H        2.30521000      -1.52223500       1.11672500
33
2sa1fa1dma1am-3
S        2.42547200       0.79613500       0.07474700
O        1.83835700       2.12161200      -0.18965700
O        2.21112800       0.28199900       1.43560000
O        2.11899100      -0.19305700      -0.98105400
O        4.02934100       1.01091200       0.02927700
H        4.25847200       1.41628500      -0.81839800
S       -1.42680600      -0.69005600      -1.57258900
O       -1.54409900       0.55583000      -2.35285600
O       -1.17732700      -0.33350600      -0.11228500
O       -2.45410000      -1.68824700      -1.75884300
O       -0.05324000      -1.40313000      -1.99274100
H        0.71323600      -0.82657100      -1.75443500
H       -3.58663600       1.59351900       3.00482800
H       -2.24684300       0.02694900       1.01860300
C       -2.97860600       1.44385800       2.10419800
O       -2.78886100       0.17369900       1.85277700
O       -2.55199400       2.38199600       1.45255500
N        0.57129900      -1.90400800       1.27266500
C       -0.15641300      -2.28415700       2.50116400
C        1.22240900      -3.02869000       0.56483100
H       -0.09923900      -1.41433400       0.63716100
H        0.54331700      -2.71324500       3.21972100
H       -0.62318900      -1.39335000       2.92148900
H       -0.92783800      -3.01251700       2.24787700
H        1.89817200      -3.53885500       1.25310700
H        0.45697800      -3.71646300       0.20422300
H        1.77981900      -2.62093600      -0.27717100
H        1.27813700      -1.16533400       1.47821500
N       -0.81558600       2.63757400      -0.74225200
H       -1.10277100       1.92423300      -1.45256900
H       -1.42847500       2.52539600       0.08681800
H        0.17628400       2.45560100      -0.48135500
H       -0.90797600       3.57646300      -1.11887500
33
2sa1fa1dma1am-5
S        2.03597300      -0.31232400      -0.78809300
O        1.11432600       0.48348200      -1.62972600
O        1.98575300       0.06988600       0.62946100
O        1.95786700      -1.75918900      -1.05664600
O        3.53231300       0.12896700      -1.22864800
H        3.70661300      -0.22578700      -2.11143700
S       -2.31043600       0.10322900      -0.81954000
O       -1.98888000       1.46542600      -0.33432300
O       -1.74042300      -0.91218900       0.15132200
O       -3.68548800      -0.14460800      -1.17687800
O       -1.46572100      -0.13602400      -2.16119500
H       -0.51662000       0.09248300      -2.00670600
H        0.65370100      -1.04385900       3.79187200
H       -1.07786900      -0.57729300       1.55003200
C        0.10123000      -1.33739700       2.89101300
O       -0.59227200      -0.33867300       2.40217700
O        0.14947100      -2.47201800       2.44922000
N        0.29133300       2.30747800       0.79481600
C        0.85545300       3.30981600      -0.13679300
C       -0.02992200       2.84139000       2.13466900
H       -0.58363400       1.91463800       0.36139900
H        1.77740600       3.71493000       0.28366700
H        1.05963000       2.81235100      -1.08408800
H        0.12445000       4.10674000      -0.27979700
H        0.87574200       3.24669700       2.58926700
H       -0.77872400       3.62792900       2.03138400
H       -0.42590100       2.02876300       2.74192500
H        0.94576600       1.50447500       0.86924100
N       -0.28366700      -3.10297700      -0.21412200
H       -1.02797000      -2.37803100      -0.33134800
H        0.58661600      -2.72885400      -0.64614200
H       -0.12706300      -3.14303400       0.80954700
H       -0.55052400      -4.00146900      -0.60299500
