41
1sa1msa1fa2dma-1
S       -0.48133400       1.29977700       1.54087900
O       -0.03806300      -0.01270200       2.34121500
O       -0.68522800       0.80732000       0.12773600
O       -1.70357700       1.73930900       2.18663300
O        0.66143300       2.24115500       1.56208400
H        1.57043600       1.88769200       0.19457000
S        1.67662100      -1.75705300      -0.24237600
O        1.83929500      -0.93526700      -1.47097600
O        0.35574500      -2.41797000      -0.13489000
O        2.04088200      -0.98403700       0.98111500
H        0.77358700      -0.39901700       1.91317900
C        2.87191000      -3.07446400      -0.36567700
H        2.64202400      -3.65687600      -1.25809300
H        3.86358600      -2.62842100      -0.44201000
H        2.79289900      -3.68979400       0.53059600
H       -3.38499200       1.88224800      -3.04083400
H       -1.43757400       1.58805300      -0.95597300
C       -2.88507800       1.37213300      -2.20735900
O       -1.87824200       2.05970800      -1.74300400
O       -3.26512700       0.28435400      -1.80079600
N       -2.24243400      -1.57693600       0.02263400
C       -2.89272800      -1.45433600       1.34693600
C       -2.63260400      -2.78699300      -0.73030000
H       -2.47452200      -0.74451300      -0.54932500
H       -2.53971700      -2.26044100       1.99081600
H       -2.63350900      -0.49159100       1.78612800
H       -3.97345000      -1.52360500       1.21244200
H       -2.36509300      -3.66970300      -0.14855300
H       -3.70694800      -2.76088900      -0.91719600
H       -2.08763300      -2.79700900      -1.67318300
H       -1.20829600      -1.59061800       0.12011800
N        2.13302600       1.69493600      -0.66937000
C        3.56445200       1.70778800      -0.30770300
C        1.74815300       2.66227300      -1.71490600
H        1.88631400       0.72883200      -0.97859700
H        3.82887400       2.69149500       0.08338300
H        3.71965200       0.94539200       0.45595900
H        4.16226200       1.47927400      -1.19171600
H        1.96747700       3.67340000      -1.36853200
H        2.30535500       2.44936100      -2.62886600
H        0.67896800       2.56377800      -1.90209500
41
1sa1msa1fa2dma-7
S        1.04438000       1.11358700      -1.16760800
O        0.49099100       2.42186000      -1.49311600
O        0.24739500      -0.00457700      -2.00364700
O        2.44196800       0.85953900      -1.55267900
O        0.80298800       0.75689300       0.27619200
H       -0.56499500       1.60715300       0.78931100
S       -2.68497300      -0.95136900      -0.07867100
O       -2.91820800      -0.29819600       1.23748400
O       -1.76749500      -2.11466800      -0.00222900
O       -2.27319500       0.03892000      -1.11418900
H       -0.71633200       0.02885000      -1.76271600
C       -4.25731200      -1.60142100      -0.60487000
H       -4.58847000      -2.32760400       0.13753400
H       -4.96180400      -0.77285100      -0.67661000
H       -4.11741500      -2.07622000      -1.57597900
H        5.14448300      -0.05434200       1.82604800
H        3.61489500       0.81728100      -0.42221400
C        4.32105200      -0.12317000       1.10122000
O        4.36978000       0.85578700       0.23569900
O        3.49612900      -1.01828100       1.14024300
N        0.95781100      -2.07539600       0.31727300
C        1.05749000      -2.82450500       1.58736900
C        1.69493500      -2.68955900      -0.80965600
H       -0.05171900      -1.99219500       0.07509100
H        2.10425700      -2.87524700       1.88420700
H        0.47686300      -2.29795300       2.34483800
H        0.63982900      -3.82157300       1.44075900
H        2.75168100      -2.73476800      -0.54817800
H        1.29305200      -3.68858100      -0.98664700
H        1.55210900      -2.06209100      -1.68883000
H        1.29489400      -1.10842000       0.45817300
N       -1.43404100       2.02616800       1.20195700
C       -2.02052000       2.99975500       0.25305800
C       -1.09895800       2.58681400       2.52434000
H       -2.07922000       1.21217300       1.30482200
H       -1.28475600       3.77337100       0.03600100
H       -2.26318200       2.46571400      -0.66437200
H       -2.92031800       3.42879100       0.69843300
H       -0.36050700       3.38009400       2.39992100
H       -2.00072900       2.98707900       2.99052500
H       -0.68247200       1.79475400       3.14689200
41
1sa1msa1fa2dma-2
S       -0.69762700      -1.62695700      -0.12398500
O       -0.08423500      -2.76429000      -0.79809800
O       -0.82721700      -0.41017200      -1.17351500
O       -2.09831500      -1.79573300       0.31814900
O        0.15111200      -1.09495300       0.98568000
H        1.74917900      -1.45278100       0.69159900
S        2.02429700       1.65719000      -0.46985300
O        3.15198800       1.16775200       0.36674800
O        0.88850000       2.19500100       0.31357700
O        1.59813500       0.63445900      -1.47129200
H        0.07595300      -0.04038000      -1.37406800
C        2.67287400       3.02648000      -1.40941500
H        3.00000300       3.79271400      -0.70651700
H        3.51144900       2.66398900      -2.00389600
H        1.87829700       3.40330100      -2.05359000
H       -5.47626400       0.24158800      -1.49213200
H       -3.38306200      -1.47111500      -0.58276900
C       -4.55636700       0.00085400      -0.94296500
O       -4.22570800      -1.25202900      -1.08458900
O       -3.96016300       0.84295000      -0.28937400
N       -1.63340000       1.41780600       1.11247300
C       -1.99590800       2.84393700       0.96325500
C       -1.81040200       0.89042800       2.48326800
H       -2.23211700       0.87395700       0.46808400
H       -1.35157100       3.44117000       1.60860700
H       -1.83623800       3.12886600      -0.07525100
H       -3.04614400       2.97127100       1.22523700
H       -1.18703100       1.47131900       3.16453400
H       -2.86218300       0.98162000       2.75749400
H       -1.50247300      -0.15382600       2.48602400
H       -0.64590300       1.31410400       0.81465000
N        2.78706400      -1.54727000       0.55164400
C        3.05211800      -2.18755000      -0.75646400
C        3.35985300      -2.25640300       1.71003200
H        3.10893600      -0.55490200       0.52430900
H        2.55156500      -3.15485000      -0.78817900
H        2.64179700      -1.53940500      -1.53018100
H        4.13041100      -2.29959800      -0.88624400
H        2.92646300      -3.25603800       1.76634300
H        4.44304400      -2.32698000       1.59713500
H        3.11773900      -1.70186100       2.61686100
