19
1msa1dma
S       -1.13974000       0.10754700      -0.04290900
C       -2.60938400      -0.89646500       0.08864800
H       -3.23191000      -0.68265700      -0.78064100
H       -2.31691800      -1.94622900       0.10591600
H       -3.12804200      -0.62234500       1.00743800
O       -1.55960100       1.50973900      -0.03600500
O       -0.41300900      -0.33303700      -1.25570700
O       -0.32955600      -0.26140700       1.19288400
H        1.06491200      -0.15036800       0.88263300
N        2.12283300      -0.04251900       0.54157200
H        2.71233200      -0.00001600       1.37065200
C        2.21873100       1.23176200      -0.21052900
H        1.53964500       1.16337900      -1.06176700
H        3.24583900       1.39291800      -0.54469500
H        1.89328200       2.04565300       0.43777000
C        2.46211500      -1.23377100      -0.26950600
H        1.71376300      -1.30488800      -1.06074300
H        2.40546400      -2.11882800       0.36502000
H        3.46619300      -1.13125200      -0.68708800
26
1sa1msa1dma
S        2.15005400      -0.58019900       0.11179500
O        3.57050400      -0.68032600      -0.04679100
O        1.59908700       0.49391500       0.94790700
O        1.51198200      -0.43605700      -1.33256700
H        0.50616900      -0.40883300      -1.28625700
O        1.60500500      -1.95115500       0.63963100
H        0.60303600      -1.92545300       0.74213200
S       -1.82904700      -0.81196800       0.03331400
C       -3.17710500      -1.67615200      -0.74145400
H       -2.76193300      -2.40319600      -1.43915700
H       -3.74277100      -2.17543400       0.04560500
H       -3.79777400      -0.94600000      -1.26045800
O       -0.99941300      -1.85249100       0.68615500
O       -2.39239900       0.20479200       0.92973200
O       -1.06843500      -0.14958400      -1.10092900
H       -0.84398400       1.55234900      -0.46854900
N       -0.26335100       2.26403700       0.01488200
H        0.40087100       1.67222300       0.55448900
C       -1.09348100       3.08510600       0.92315700
H       -1.76987800       3.69950300       0.32726300
H       -0.44205900       3.72197400       1.52292900
H       -1.66735100       2.40818300       1.55509200
C        0.51822600       3.02312700      -0.98627300
H       -0.16300200       3.58760300      -1.62410100
H        1.09371900       2.31555600      -1.58409000
H        1.19580000       3.70271800      -0.46851100
33
2sa1msa1dma
S       -1.03213600       1.83595300      -0.76951500
O       -1.77448300       1.46995300       0.48809000
O        0.41191900       2.01426400      -0.47060600
C       -1.65812100       3.41900000      -1.27473400
O       -1.30718100       0.90155400      -1.87999100
H       -0.50562400       0.89012100       1.69917300
S       -1.80926700      -1.89484800      -0.05972900
O       -2.85006300      -0.93039300       0.63031800
O       -0.47240800      -1.42119900       0.34434200
O       -1.97032600      -1.62575100      -1.59656100
O       -2.19487700      -3.24452200       0.21464500
H       -2.53541400       0.01820200       0.56614900
H       -1.68399800      -0.68895000      -1.80548900
N        0.33645600       0.68432300       2.26314000
H        1.02667700       0.28195700       1.59821700
C        0.03392800      -0.31786600       3.30915100
H       -0.70610200       0.09088500       3.99856200
H        0.95443800      -0.55442700       3.84379000
H       -0.35235100      -1.21281100       2.82408700
C        0.89319300       1.95715400       2.77418700
H        0.17934200       2.41105800       3.46301100
H        1.07096900       2.61197300       1.92177800
H        1.83338800       1.75052300       3.28628400
S        2.81373100      -0.57798100      -0.54852400
O        4.14770800      -0.97205700      -0.88525600
O        2.41881400       0.62669000      -1.48196400
O        2.48543000      -0.21460300       0.83450200
H        1.63211700       1.13047100      -1.13245600
O        1.84491200      -1.74780600      -0.98166400
H        0.97322100      -1.67993400      -0.51712000
H       -1.13285500       3.70447900      -2.18629000
H       -1.46906300       4.13526800      -0.47547200
H       -2.72674200       3.31217500      -1.46037800
17
1sa1dma
S       -1.26721000      -0.17441000       0.04944800
O       -0.55307000       0.01572000       1.29327800
O       -2.47292000      -0.93594000       0.07942800
O       -1.69062000       1.32445000      -0.34847200
H       -2.47631000       1.27200000      -0.90388200
O       -0.33425000      -0.58766000      -1.01995200
H        1.04023000      -0.40387900      -0.47127200
N        1.89041000      -0.11182900       0.15026800
H        1.50221000      -0.28815900       1.08063800
C        2.05540000       1.34607100      -0.01704200
H        2.34458000       1.54519100      -1.04540200
H        2.82015000       1.71336100       0.66296800
H        1.09892000       1.81555100       0.19674800
C        3.10056000      -0.90119900      -0.11983200
H        3.40239000      -0.73475900      -1.15035200
H        2.87933100      -1.95387900       0.02679800
H        3.90209000      -0.59386900       0.54770800
28
2msa1dma
S        2.37827600      -0.26979900      -0.02780400
C        1.98512700      -1.21545300       1.42547100
H        0.89740300      -1.24386100       1.53531900
H        2.41054600      -2.21110600       1.29952100
H        2.44829400      -0.70368300       2.27016800
O        3.80815200      -0.23699500      -0.23686900
O        1.68373500       1.02493800       0.08921400
O        1.74530500      -1.09992800      -1.20278500
H        0.74631400      -1.26349600      -1.09282700
S       -1.75667300      -0.99705400      -0.08359500
C       -3.04806900      -2.20260200       0.13249900
H       -3.44440100      -2.45587900      -0.85061800
H       -2.61330700      -3.07951100       0.61204400
H       -3.82161300      -1.76052500       0.76048900
O       -0.73336400      -1.67007500      -0.93466100
O       -1.23450700      -0.63592800       1.25236600
O       -2.38837800       0.16830800      -0.76936500
H       -1.46737000       1.49435400      -0.38723500
N       -0.77606700       2.20641300      -0.03531100
H        0.12273000       1.68882200       0.04257100
C       -1.19315300       2.63763800       1.31578500
H       -2.15243400       3.15288600       1.24607600
H       -0.43724300       3.30607500       1.73098500
H       -1.29305500       1.74143200       1.92880500
C       -0.61570800       3.29541800      -1.01870400
H       -1.57132700       3.80457100      -1.15199600
H       -0.29215900       2.86304300      -1.96534400
H        0.13771700       3.99907100      -0.66188400
35
1sa2msa1dma
S       -0.45585500       2.01269700      -0.53642700
O       -1.38397800       1.68992700       0.59760100
O        0.95378600       1.99515700      -0.06994700
C       -0.82132200       3.68531400      -1.01279500
O       -0.68987500       1.16433000      -1.72651000
H       -0.46349700       0.57213200       1.79181600
S       -2.41680000      -1.42058300      -0.30781600
O       -3.22369000      -0.22039700       0.34902300
O       -1.09056700      -1.44706200       0.30065100
O       -2.25926300      -0.97706300      -1.81745200
O       -3.25997800      -2.57912000      -0.27734200
H       -2.61926300       0.56352900       0.44764500
H       -1.67195200      -0.17445600      -1.86624200
N        0.28050600       0.11754300       2.34650700
H        0.89959900      -0.34188500       1.64907700
C       -0.28849500      -0.90921900       3.24876700
H       -0.94985300      -0.42597800       3.96939700
H        0.53013500      -1.40813900       3.76877300
H       -0.84123900      -1.62453200       2.64236900
C        1.07335600       1.16125500       3.03569700
H        0.44091500       1.66773700       3.76617500
H        1.42573000       1.86675300       2.28441800
H        1.92086100       0.68773700       3.53205600
S        2.82658300      -0.93843800      -0.53381800
O        4.09556600      -1.58406000      -0.77159700
O        2.97151800       0.57034200      -1.00165900
O        2.28148000      -0.95505200       0.83131600
C        1.59147800      -1.58776900      -1.63245200
H       -0.14910500       3.95267500      -1.82826600
H       -0.65904900       4.32804100      -0.14781200
H       -1.86076200       3.72404300      -1.33881300
H        1.40466200      -2.62120400      -1.33962000
H        1.98891700      -1.53005600      -2.64552800
H        0.68364100      -0.99422500      -1.52484100
H        2.20376800       1.12273300      -0.68513200
24
2sa1dma
S        2.27430800      -0.02367400       0.00242500
O        1.39668800       1.07650500      -0.41515400
O        3.67984600       0.21566100       0.12990600
O        1.73616000      -0.57559900       1.37935200
H        0.73739400      -0.65612000       1.35718200
O        2.07376600      -1.21988800      -1.00171300
H        1.11142900      -1.47450800      -1.06729700
S       -1.49242600      -1.22377200      -0.08990900
O       -0.87694100      -0.67133500       1.14776000
O       -0.49983100      -1.90496000      -0.94051600
O       -2.53298200      -2.36259100       0.36993900
H       -2.03901200      -3.16832600       0.57703300
O       -2.34586700      -0.23647800      -0.76065900
H       -1.72527800       1.33736600      -0.36601200
N       -1.10722400       2.12605900      -0.07692100
H       -0.15371300       1.71152400      -0.08616000
C       -1.44773300       2.53532300       1.30390100
H       -2.45275400       2.95913000       1.31460300
H       -0.72480200       3.27725300       1.64535000
H       -1.40801200       1.64724400       1.93452500
C       -1.15956700       3.20966400      -1.08150900
H       -2.16840700       3.62279700      -1.11632900
H       -0.89418300       2.79330500      -2.05287100
H       -0.44511300       3.98662500      -0.80751700
37
3msa1dma
S       -0.21609300       2.06790500      -0.62216800
O       -1.14734500       1.94736500       0.52805600
O        1.20502000       1.94634300      -0.18941700
C       -0.40255800       3.71334500      -1.27363900
O       -0.54020400       1.14377800      -1.74078100
H       -0.41032100       0.75071500       1.73943600
S       -2.53147900      -1.35136500      -0.27338300
C       -3.66252600      -0.18866900       0.45979500
O       -1.26904500      -1.27927200       0.46458900
O       -2.31026900      -0.75596900      -1.72343800
O       -3.18916800      -2.63046300      -0.42686100
H       -1.64273400      -0.00407700      -1.71173000
N        0.31027600       0.29016500       2.32493100
H        0.89969100      -0.25080500       1.66010400
C       -0.30309200      -0.64302100       3.29465900
H       -0.93824000      -0.07951100       3.98026100
H        0.49142200      -1.14321400       3.84994500
H       -0.88875100      -1.37197500       2.73738300
C        1.16361200       1.33064000       2.94213500
H        0.56362000       1.91914400       3.63787900
H        1.54928900       1.96339000       2.14385600
H        1.98647300       0.84463500       3.46755800
S        2.71306400      -1.18926600      -0.47064400
O        3.88580700      -2.00285100      -0.68993700
O        3.03243400       0.25976500      -1.02578000
O        2.20381000      -1.06466600       0.90371600
C        1.37695000      -1.73659000      -1.50520900
H        0.27150300       3.81422100      -2.12429900
H       -0.14412200       4.42251900      -0.48737800
H       -1.43962400       3.83885400      -1.58487600
H        1.01425900      -2.68226300      -1.10194600
H        1.77031800      -1.85900700      -2.51416500
H        0.58947100      -0.98333500      -1.47737200
H        2.33063600       0.91733100      -0.74652800
H       -4.56027400      -0.15467000      -0.15740800
H       -3.16318200       0.78109200       0.50761500
H       -3.90186900      -0.55704900       1.45864300
31
3sa1dma
S       -1.06866900       1.76048000      -0.88187600
O       -1.77945200       1.50064300       0.39599500
O        0.37815400       1.95633800      -0.66911200
O       -1.67544000       3.18034500      -1.32193200
O       -1.39010700       0.80981100      -1.95445000
H       -0.49110200       1.05137700       1.63998600
H       -1.36090800       3.39778100      -2.21176400
S       -1.80082100      -1.87703100       0.07172500
O       -2.86511800      -0.90545900       0.71616300
O       -0.47583900      -1.31899900       0.39917400
O       -2.01406600      -1.73439100      -1.47791100
O       -2.12300100      -3.21568800       0.45560800
H       -2.58461900       0.04197500       0.58964200
H       -1.75942800      -0.81726200      -1.77270000
N        0.36390500       0.90582800       2.20042800
H        1.04970100       0.46238000       1.55817100
C        0.09355500      -0.01862100       3.32461800
H       -0.63963900       0.43180100       3.99489000
H        1.02654900      -0.20365700       3.85759300
H       -0.29008400      -0.95177800       2.91442600
C        0.90565200       2.22543200       2.59973600
H        0.19288200       2.72336200       3.25814700
H        1.06022200       2.81238100       1.69499500
H        1.85567800       2.07466400       3.11288800
S        2.81734900      -0.62074300      -0.51670600
O        4.15704600      -1.01450000      -0.82708200
O        2.36206400       0.44001900      -1.59085700
O        2.49790900      -0.08821600       0.81194000
H        1.59540400       0.98657600      -1.27250300
O        1.88316100      -1.86724200      -0.77756400
H        0.99454300      -1.73584100      -0.36295100
16
1sa1msa
S       -1.75338800       0.00023600      -0.07415000
C       -3.51742000       0.00033300      -0.16469400
O       -1.22134800      -1.24025200      -0.64008900
O       -1.22146800       1.24361300      -0.63370400
O       -1.56381700      -0.00393300       1.49911700
S        1.95974900      -0.00027200       0.09509700
O        1.55716800       1.25032400      -0.79189700
H        0.58086400       1.38410000      -0.78322900
O        1.10700100      -0.00245200       1.28439100
O        3.38211800      -0.00115000       0.22118900
O        1.55622400      -1.24649500      -0.79746200
H        0.57970700      -1.37937100      -0.79001300
H       -0.58555700      -0.00454900       1.66830300
H       -3.88360800      -0.90256300       0.32294400
H       -3.77195800       0.00310700      -1.22502800
H       -3.88373000       0.90062100       0.32765800
23
2sa1msa
S        0.19547400       1.35841300      -0.03316400
O       -0.09393100       0.04995200      -0.65750600
O        1.34860900       2.05619000      -0.55713900
H        3.00895000       1.22062800      -0.63761800
O        0.33369100       1.12994000       1.51715900
O       -1.04078300       2.27133800      -0.10929200
O        3.73474300       0.55920100      -0.62250800
S        3.26006800      -0.78251200       0.07240800
O        4.39869900      -1.63339700       0.19092300
O        2.27606000      -1.43322800      -0.99153100
O       -2.57711400      -0.89447800      -1.32752200
H        1.39371300      -1.00322700      -0.95432400
H       -1.65737300      -0.55976100      -1.22005800
O        2.46491900      -0.43185400       1.25029100
O       -3.05209600       0.79598600       0.43036800
H        1.13851400       0.56196100       1.65143100
H       -1.88997200       1.75201700       0.09743800
O       -4.82967900      -0.77664500      -0.38149800
S       -3.45225500      -0.54093600      -0.04465900
C       -2.89457100      -1.71316500       1.16836600
H       -3.10103800      -2.71375900       0.78890300
H       -3.45575900      -1.52057000       2.08349800
H       -1.82713400      -1.56177300       1.33323300
36
1sa1msa2dma
N       -2.50978200      -0.98527000       0.41923700
H       -1.86962100      -1.58546900      -0.14305300
C       -3.68882500      -0.61147400      -0.38496400
H       -4.34049200       0.02675900       0.21362300
H       -4.22122300      -1.51342600      -0.69111000
H       -3.33586900      -0.06257800      -1.25821000
C       -2.80413800      -1.69431100       1.68032400
H       -3.41941700      -1.05543300       2.31566600
H       -1.85189100      -1.90550500       2.16625800
H       -3.32798900      -2.62546700       1.45924100
S       -0.66038100       1.98103600      -0.09951200
O        0.78847200       2.03431900       0.22021600
O       -0.95251200       1.17841700      -1.32538600
H        0.14164300      -0.06327800      -1.61693300
O       -1.52635300       1.56714800       1.03197800
S        0.57449900      -1.84334100      -0.45557200
O        0.85317000      -0.75610900      -1.62421200
O        0.28387600      -1.05310300       0.76536500
O       -0.60704300      -2.62894100      -0.86894800
H       -1.97882800      -0.11787600       0.65001000
O        1.86390800      -2.54111600      -0.38906600
H        2.68374600      -0.80660500       0.14258400
N        2.79488800       0.17727800       0.44023100
H        1.87281800       0.64566200       0.29034400
C        3.79825900       0.84707300      -0.40980200
H        4.77483100       0.38508100      -0.25634900
H        3.83255400       1.90489300      -0.14721700
H        3.48872500       0.73363000      -1.44847200
C        3.06962000       0.21263600       1.89167200
H        4.01723500      -0.28808200       2.09599200
H        2.24762400      -0.30114600       2.38945600
H        3.11039700       1.25330000       2.21515700
C       -1.11807700       3.66000200      -0.49261000
H       -0.91803100       4.27756500       0.38326700
H       -0.51757000       3.98624700      -1.34183800
H       -2.17946700       3.67608000      -0.74064500
43
2sa1msa2dma
S        4.05275700      -0.39253400      -0.01458600
C        4.03042800      -1.43104500       1.43134500
H        4.32080200      -0.81000100       2.27944500
H        3.01760200      -1.81717000       1.55792500
H        4.74766500      -2.23744500       1.27935000
O        5.40816600       0.01404800      -0.31587800
O        3.03402700       0.64106000       0.17239500
O        3.59750900      -1.37909000      -1.16674800
H        2.67147500      -1.70803400      -0.98575700
N        0.79850400       2.36943600      -0.05312900
H        0.91696300       1.36389400      -0.26248000
C        1.08278600       2.62092100       1.37932300
H        0.92373700       3.68070400       1.58268700
H        2.11095900       2.32946400       1.58599100
H        0.38868300       2.02669600       1.97253100
C        1.64542800       3.14889900      -0.98428800
H        1.46959300       4.21195200      -0.81471900
H        1.37250700       2.88529500      -2.00598300
H        2.68790600       2.89048000      -0.80249900
S        0.08618500      -1.45086300      -0.22475700
O       -1.19922500      -2.15810700      -0.35948800
O        1.27210100      -2.30631400      -0.34390400
O        0.15069200      -0.24022700      -1.09632900
H       -1.36931300       0.37828700      -1.36850400
O        0.15783600      -0.89660200       1.27968600
H       -0.59244100      -0.25425500       1.36560600
S       -2.56476100       1.53362500       0.02888700
O       -2.31199200       0.69309300      -1.32814700
O       -1.89035900       0.76497000       1.11433200
O       -1.95266900       2.85741900      -0.16601600
H       -0.20575800       2.59447500      -0.21263100
O       -4.02436200       1.48435900       0.14991400
H       -4.06975100      -0.39475700       0.09495100
N       -3.82340800      -1.40253600       0.08026900
H       -2.79954700      -1.46500800      -0.10448900
C       -4.52607000      -2.06588100      -1.03887700
H       -5.60273200      -2.01459400      -0.87165000
H       -4.19925400      -3.10459600      -1.09637700
H       -4.26448600      -1.54366200      -1.95876300
C       -4.07803100      -1.98405800       1.41596600
H       -5.14564200      -1.93520700       1.63406300
H       -3.51872200      -1.39964500       2.14624200
H       -3.73384900      -3.01870300       1.42302800
38
2msa2dma
H       -0.68911300      -1.47230100       0.50350900
S        2.63841500      -0.03286800      -0.37277700
O        2.28763600      -1.39919500      -0.85098200
O        2.53511200       1.02410500      -1.38670900
O        1.86738600       0.29847000       0.87430600
N        0.00234300      -2.24746200       0.37269600
H        0.79584100      -1.87523800      -0.20039300
C       -0.64790000      -3.36203400      -0.34703000
H       -1.43502900      -3.78161200       0.28182100
H        0.09928700      -4.12409400      -0.57450000
H       -1.09245300      -2.96350700      -1.25831100
C        0.54788800      -2.60325600       1.69765800
H       -0.26626400      -2.92873200       2.34748600
H        1.03165900      -1.71567200       2.10608000
H        1.28031900      -3.40405500       1.58163300
H        0.68891700       1.47229900       0.50348700
S       -2.63833300       0.03288600      -0.37354500
O       -1.86750500      -0.29867700       0.87361900
O       -2.28747700       1.39932000      -0.85140300
O       -2.53486400      -1.02388200      -1.38765500
N       -0.00246100       2.24746500       0.37259900
H       -0.79588300       1.87530900      -0.20066900
C        0.64795000       3.36209900      -0.34687200
H        1.43498800       3.78156000       0.28217100
H       -0.09917000       4.12421400      -0.57437600
H        1.09264500       2.96365200      -1.25811600
C       -0.54822500       2.60311800       1.69750700
H        0.26581300       2.92856600       2.34749200
H       -1.03200900       1.71546800       2.10576500
H       -1.28067600       3.40389000       1.58143500
C        4.35080900      -0.12393600       0.12401300
H        4.94014400      -0.38337500      -0.75588100
H        4.64699800       0.85167900       0.50988400
H        4.45013400      -0.89029600       0.89287000
C       -4.35080000       0.12385700       0.12299600
H       -4.94000200       0.38341100      -0.75695300
H       -4.64703400      -0.85181800       0.50868300
H       -4.45024600       0.89010900       0.89194300
45
1sa2msa2dma
S        4.10249100       0.01208700       0.28890400
C        4.13499300      -1.69420600       0.79442500
H        3.15295400      -2.12526800       0.59431600
H        4.91220800      -2.20166100       0.22329700
H        4.36197900      -1.70970700       1.86084800
O        5.43412200       0.57666300       0.34847800
O        3.02499500       0.67524300       1.02302400
O        3.70761100      -0.07998100      -1.24428400
H        2.83905400      -0.57483800      -1.35232100
N       -2.64434300      -2.07132500       0.84849200
H       -1.94149700      -2.17324600       0.07994400
C       -3.91671400      -2.67784900       0.41187500
H       -4.66741100      -2.54922100       1.19328400
H       -3.76107200      -3.73885800       0.21078100
H       -4.23597300      -2.17021900      -0.49842200
C       -2.06598500      -2.64322200       2.08069000
H       -2.75618800      -2.48632800       2.91117600
H       -1.11967000      -2.13587000       2.26864600
H       -1.89071200      -3.70998600       1.93315900
S       -3.10268600       1.28408100      -0.09667900
O       -2.08871400       2.35972800       0.01628100
O       -2.81316400       0.32346400      -1.20034100
H       -1.24859400       0.05394400      -1.73036100
O       -3.35546200       0.57089200       1.18356600
S        0.20840400      -1.28833000      -0.91171000
O       -0.29245200      -0.15023400      -1.92436900
O        0.13465200      -0.70039000       0.44628600
O       -0.70595800      -2.43995600      -1.04885600
H       -2.80283900      -1.04865300       0.98597000
O        1.58219000      -1.56514900      -1.36659000
H        0.82960000       1.06764900       0.57543900
N        0.59464500       2.06725900       0.45315200
H       -0.43687500       2.09450500       0.30331800
C        1.25893300       2.58598300      -0.76408500
H        2.33777900       2.55525400      -0.61773200
H        0.92091800       3.60882000      -0.93720000
H        0.97439400       1.95015300      -1.60252700
C        0.92491800       2.81326700       1.68503700
H        1.99687400       2.73599300       1.86296400
H        0.37644500       2.37074100       2.51651400
H        0.62380600       3.85422600       1.55847900
C       -4.62439500       2.10033000      -0.53352000
H       -4.86736000       2.81005200       0.25727800
H       -4.47135400       2.61443000      -1.48234300
H       -5.40294600       1.34309500      -0.62632600
34
2sa2dma
N       -2.87169700      -0.54688400       0.00095400
H       -2.21106900       0.21097500      -0.29785600
C       -3.23645900      -0.35775900       1.42281700
H       -3.95635600      -1.12493400       1.71160800
H       -3.66485900       0.63605200       1.55564300
H       -2.33074500      -0.45443600       2.01963400
C       -4.01596900      -0.56050000      -0.93435000
H       -4.68761600      -1.37970000      -0.67416200
H       -3.63540100      -0.69893000      -1.94618800
H       -4.54247800       0.39237000      -0.86776100
S       -0.23457800       2.14316600      -0.15791900
O        1.21720000       1.92393100      -0.34643600
O       -0.70513800       3.50412300      -0.24160000
O       -1.00720000       1.16616600      -1.01891000
H       -0.10576100      -0.17873100      -1.33786200
O       -0.56728900       1.65677100       1.34772500
H       -0.27459900       0.71578400       1.39646500
S        0.22713000      -1.88699500      -0.02692500
O        0.45561000      -1.00367400      -1.35923400
O        0.13697400      -0.91108500       1.09677300
O       -1.04095800      -2.61905900      -0.20622000
H       -2.31755100      -1.42901300      -0.09035000
O        1.45127700      -2.68869400       0.02751400
H        2.58305600      -1.13621600      -0.02762000
N        2.92297600      -0.16093100       0.04304300
H        2.10720000       0.46863400      -0.13962700
C        3.93084800       0.10104600      -1.00579000
H        4.80009800      -0.53809200      -0.84486500
H        4.21783800       1.15208700      -0.96065500
H        3.47834500      -0.11464700      -1.97323000
C        3.37851300       0.09215300       1.42722500
H        4.26154300      -0.51308400       1.63724200
H        2.56573200      -0.18253400       2.09933500
H        3.60744200       1.15292100       1.53347000
47
3msa2dma
S        4.04455500      -0.70123000       0.00752300
C        5.64515900      -1.34089300      -0.41809300
H        5.94704900      -1.99862800       0.39752900
H        5.55938000      -1.89381800      -1.35278300
H        6.33633000      -0.50402900      -0.51406600
O        4.15355900       0.13774800       1.19253500
O        3.08091300      -1.79991600       0.04342700
O        3.78256000       0.18817700      -1.27521100
H        2.82222400       0.52808100      -1.23862300
H       -2.48897700       1.01804600      -0.26335600
S        0.80974400       1.95561200      -0.09623500
O       -0.07789600       2.88291500      -0.83784800
O        0.17412000       1.38697500       1.10758100
O        1.34749500       0.86205400      -0.98594900
N       -2.64582500       2.04307600      -0.10688500
H       -1.76080200       2.50071500      -0.40438800
C       -2.87760000       2.27664100       1.33690000
H       -3.72489900       1.66515400       1.64899800
H       -3.07774000       3.33763200       1.49847100
H       -1.97366600       1.98005000       1.86799600
C       -3.77259600       2.45371300      -0.96773600
H       -4.64965400       1.87105900      -0.68133900
H       -3.51313800       2.24919000      -2.00673500
H       -3.96130900       3.52050100      -0.83626500
H        0.80526900      -0.86729600      -0.15243200
S       -3.48560500      -1.38427200       0.03603300
O       -2.37773300      -0.61437600      -0.66507700
O       -2.92017000      -2.40692600       0.92794500
O       -4.46062600      -0.45190500       0.62499500
N        0.08801100      -1.52514400       0.18194300
H       -0.82784300      -1.07200300      -0.02348500
C        0.23205600      -1.72842100       1.64215200
H        1.18590000      -2.22220600       1.82806900
H       -0.61076800      -2.33084600       1.98251700
H        0.21888000      -0.74743400       2.11460400
C        0.14118000      -2.77731600      -0.60093300
H        1.10843300      -3.25321000      -0.44299300
H        0.01354000      -2.53214000      -1.65557900
H       -0.67534000      -3.41894600      -0.26662200
C        2.23132200       2.89514000       0.42070700
H        1.88048000       3.68889500       1.08059900
H        2.91166300       2.22256100       0.94708300
H        2.70462200       3.31604500      -0.46698300
C       -4.32749800      -2.25023700      -1.28125900
H       -5.15064300      -2.81048200      -0.83677200
H       -4.70415400      -1.51742100      -1.99510300
H       -3.61916300      -2.92649100      -1.76046900
41
3sa2dma
S       -3.77356900      -0.67251500      -0.64725300
O       -5.05026700      -0.69574500      -1.29473600
O       -3.37302700       0.49596900       0.13778400
O       -3.67491600      -1.94749000       0.27411000
H       -2.79523500      -1.96916300       0.73847700
O       -2.66214600      -0.91004900      -1.75161300
H       -1.75965000      -0.77967400      -1.35409100
N        3.65548600      -1.59492700      -0.14702000
H        3.46468300      -0.63242100       0.21908500
C        4.29436900      -1.50332600      -1.47962800
H        4.41082900      -2.50579600      -1.89380000
H        5.26864700      -1.02558100      -1.37109200
H        3.65870000      -0.89278800      -2.12040700
C        4.41622000      -2.36729800       0.85858500
H        4.56365000      -3.38516900       0.49541600
H        3.84327900      -2.38733800       1.78546800
H        5.38084600      -1.88625500       1.02421500
S        2.37210400       1.67246400      -0.43959800
O        1.25602400       2.58285300      -0.13065900
O        3.58043600       2.24637400      -0.98349300
O        2.63241700       0.75848800       0.74085400
H        1.33489700       0.14398100       1.48741600
O        1.84342700       0.66339500      -1.59156700
H        0.99832400       0.24708300      -1.29211700
S       -0.02815400      -1.33210400       0.72766500
O        0.49325300      -0.29324900       1.82029100
O       -0.35130800      -0.48866000      -0.48120100
O        1.06158100      -2.27526400       0.44481800
H        2.69757200      -1.98614500      -0.20816700
O       -1.22701200      -1.91510900       1.32698300
H       -1.77663000       1.34620800       0.39013700
N       -1.31591300       2.21869800       0.69085000
H       -0.30728000       2.16628300       0.44002300
C       -1.46846400       2.34015700       2.15853900
H       -2.53174500       2.37911000       2.39737500
H       -0.96826700       3.25024700       2.49177800
H       -1.01128600       1.46657700       2.62170900
C       -1.91535900       3.33569700      -0.07418300
H       -2.98639000       3.36839900       0.12619900
H       -1.74228000       3.16003900      -1.13531400
H       -1.43406900       4.26701400       0.22540800
18
2msa
S       -1.86388800       0.08803300       0.05602900
O       -1.61191600       1.50835700      -0.11710500
O       -1.20811900      -0.56736100       1.19602500
O       -1.50891800      -0.71116800      -1.26682400
S        2.04121200      -0.11947400      -0.07526400
O        1.49473300      -0.59886600       1.33835900
H        0.50391100      -0.62790000       1.34780000
O        1.13580700      -0.61933500      -1.12047600
O        3.43687800      -0.47287500      -0.13872600
H       -0.51535300      -0.74729800      -1.34321000
C       -3.60268100      -0.23406800       0.12806300
H       -3.75175500      -1.31027600       0.20601600
H       -3.97797000       0.27792300       1.01456300
H       -4.05908500       0.17003200      -0.77515300
C        1.86164100       1.64827400      -0.00618000
H        2.44547600       2.01129700       0.83945800
H        2.25385100       2.04333900      -0.94423600
H        0.80226500       1.89069800       0.10120300
25
1sa2msa
S       -0.00000600       1.24336800       0.00004600
O        1.24058200       1.97708100       0.15059300
O       -1.24057400       1.97716300      -0.15029500
H       -2.89467700       1.41224600       0.04526300
O       -0.07608600       0.27693300       1.23825800
O        0.07608400       0.27725800      -1.23843600
O       -3.76196100       0.94711400       0.10576700
S       -3.55784100      -0.62992300       0.12611400
C       -3.19993800      -1.02019200      -1.57063900
O       -4.80895200      -1.21992700       0.52303100
O        3.76183700       0.94719100      -0.10501000
H        2.89451100       1.41225900      -0.04456100
O       -2.35180800      -0.93438500       0.91359300
O        2.35191600      -0.93406400      -0.91388900
H       -0.94493300      -0.22654500       1.20985200
H        0.94490500      -0.22624100      -1.21015900
O        4.80906700      -1.21953200      -0.52328100
S        3.55785800      -0.62985700      -0.12618000
C        3.19985400      -1.02099400       1.57035300
H       -2.28308900      -0.50597100      -1.86344600
H       -4.04938400      -0.70154100      -2.17459100
H       -3.06776800      -2.10137600      -1.62810600
H        4.04921300      -0.70256700       2.17454600
H        3.06776800      -2.10221800       1.62727100
H        2.28293400      -0.50699200       1.86332100
14
2sa
S       -2.07644700      -0.06785900       0.12472300
O       -1.09695600       0.15005000       1.17635800
O       -3.37094400      -0.61004400       0.41600400
O       -2.22836800       1.37542500      -0.55749000
H       -2.98658400       1.37303200      -1.16092700
O       -1.44242400      -0.94349500      -1.01651000
H       -0.48302200      -0.71196000      -1.13740200
O        1.09712300      -0.15015800      -1.17650800
S        2.07646200       0.06780900      -0.12474000
O        1.44241000       0.94375900       1.01622300
O        3.37106500       0.60981200      -0.41589500
O        2.22811800      -1.37533400       0.55784300
H        0.48292800       0.71251400       1.13701600
H        2.98625900      -1.37291000       1.16137700
53
2sa1msa3dma
S        4.13261300       0.19561000      -0.03889100
C        5.42431600       0.36777000       1.18151100
H        5.57906100      -0.60153500       1.65601100
H        6.33033300       0.69275900       0.66954400
H        5.11040500       1.10886800       1.91667200
O        2.90452300      -0.21130600       0.71924300
O        4.57203500      -0.83479700      -0.99202700
O        3.95322600       1.55252100      -0.62636100
N        1.94785200      -2.56297700      -0.31780200
H        2.20639400      -1.65040300       0.12543000
C        1.76490400      -2.34339500      -1.77213900
H        1.54735700      -3.30042000      -2.24899100
H        2.68107900      -1.90734400      -2.17224800
H        0.91623100      -1.67341700      -1.90942600
C        3.00990600      -3.53956000       0.00410800
H        2.76032300      -4.50287000      -0.44341000
H        3.07419000      -3.64241800       1.08757100
H        3.95232400      -3.15978400      -0.39341400
S       -2.08281500       1.97071900      -0.16119300
O       -3.27564700       1.83659800      -1.02344700
O       -1.58255300       3.32365600       0.02900800
O       -2.24622600       1.17537000       1.08690800
H       -1.33027600      -0.17678100       1.48304600
O       -0.86096600       1.24339000      -0.96113700
H       -1.02095900       0.25698400      -0.99284400
S       -1.45482400      -2.03863200       0.43661800
O       -0.84494400      -1.04316100       1.53329200
O       -1.33041400      -1.33322600      -0.87245900
O       -0.59711000      -3.22531800       0.53390500
H        1.03787800      -2.86587700       0.08694400
O       -2.86974800      -2.27710600       0.78322700
H       -3.88460000      -1.08367400       0.17210900
N       -4.60216200      -0.40770300      -0.18114800
H       -4.08595200       0.41543000      -0.56970300
C       -5.40321200       0.05703500       0.97071700
H       -5.89102900      -0.79937600       1.43861700
H       -6.14777200       0.77612700       0.62585300
H       -4.72315600       0.53616100       1.67506800
C       -5.37496900      -1.06165400      -1.25483100
H       -5.88351800      -1.93769100      -0.84973600
H       -4.68246900      -1.37039900      -2.03777300
H       -6.10347100      -0.35681000      -1.65869300
N        1.48899300       2.57587900      -0.08526300
C        1.46614600       3.93387000      -0.67346300
C        1.31949200       2.55172700       1.38701100
H        2.39975700       2.11741800      -0.32794800
H        0.35684700       2.99984400       1.63442000
H        2.13684300       3.11533800       1.84019800
H        1.36559600       1.51267000       1.71256700
H        0.49663200       4.38788100      -0.46955400
H        1.62023000       3.84692900      -1.74900200
H        2.27636300       4.51810100      -0.23488900
H        0.72607700       2.01700600      -0.50016800
27
3msa
S        0.04411800       1.16263300      -0.13472000
O        1.30201000       1.81990700      -0.49900300
O       -1.18733900       1.81804100      -0.54469900
H       -2.86699400       1.30010000      -0.44058500
C        0.03031400       0.86883000       1.61136300
O        0.00679800      -0.28376800      -0.78547200
O       -3.77979200       0.93201200      -0.42768400
S       -3.76419200      -0.55078700       0.17107800
C       -3.25881600      -1.52404300      -1.23213800
O       -5.13150900      -0.87207500       0.50996000
O        3.80919600       0.84906500      -0.59516400
H        2.95802100       1.35776100      -0.62386700
O       -2.71414400      -0.63473600       1.18030900
O        3.25220000      -0.36625700       1.52013600
H        0.90699100      -0.70916800      -0.76989600
O        2.49387900      -1.26052000      -0.67494200
S        3.51697700      -0.54670200       0.10439700
C        5.08360300      -1.32726700      -0.15148400
H       -2.25613200      -1.21070000      -1.52623300
H       -3.98175100      -1.36778100      -2.03237400
H       -3.25576700      -2.56714700      -0.91313700
H        5.26369300      -1.39973200      -1.22334000
H        5.01385000      -2.31623500       0.30246400
H        5.84499800      -0.72592000       0.34466100
H        0.94143600       0.32606600       1.87240700
H       -0.87570500       0.30228000       1.83502600
H        0.01589900       1.84971600       2.08881300
21
3sa
S        0.20352800       1.35229700      -0.06337000
O       -0.08424500       0.05174400      -0.70101200
O        1.36937500       2.04417000      -0.56395700
H        3.03982200       1.21725300      -0.60968200
O        0.29769700       1.12823100       1.48722400
O       -1.02135100       2.28690700      -0.16789300
O        3.76222700       0.55329400      -0.58223800
S        3.26496400      -0.78874700       0.09752600
O        4.39840000      -1.64214500       0.24416000
O        2.31047900      -1.43534400      -0.99651700
O       -2.48045400      -1.13571600      -1.13411300
H        1.42514500      -1.01308000      -0.97631700
H       -1.57947600      -0.73842600      -1.03672100
O        2.43801200      -0.43752300       1.25211500
O       -3.18443100       0.86142600       0.14296600
H        1.08195800       0.53894000       1.64593500
H       -1.88016100       1.78982400      -0.01785400
O       -4.77136400      -1.02942300      -0.33717400
S       -3.45382700      -0.55634400      -0.03886900
O       -2.91781400      -1.21874300       1.31595300
H       -3.25416800      -2.12483200       1.39392800
