1sa_2msa.log
 OpenBabel11151907183D
Gaussian opt/gaussian/g09/g09 # opt freq wb97xd 6-31++g(d,p)
 25 22  0  0  0  0  0  0  0  0999 V2000
   -0.0000    1.2434    0.0000 S   0  0  0  0  0  0  0  0  0  0  0  0
    1.2406    1.9771    0.1506 O   0  0  0  0  0  0  0  0  0  0  0  0
   -1.2406    1.9772   -0.1503 O   0  0  0  0  0  0  0  0  0  0  0  0
   -2.8947    1.4122    0.0453 H   0  0  0  0  0  0  0  0  0  0  0  0
   -0.0761    0.2769    1.2383 O   0  0  0  0  0  0  0  0  0  0  0  0
    0.0761    0.2773   -1.2384 O   0  0  0  0  0  0  0  0  0  0  0  0
   -3.7620    0.9471    0.1058 O   0  0  0  0  0  0  0  0  0  0  0  0
   -3.5578   -0.6299    0.1261 S   0  0  0  0  0  0  0  0  0  0  0  0
   -3.1999   -1.0202   -1.5706 C   0  0  0  0  0  0  0  0  0  0  0  0
   -4.8090   -1.2199    0.5230 O   0  0  0  0  0  0  0  0  0  0  0  0
    3.7618    0.9472   -0.1050 O   0  0  0  0  0  0  0  0  0  0  0  0
    2.8945    1.4123   -0.0446 H   0  0  0  0  0  0  0  0  0  0  0  0
   -2.3518   -0.9344    0.9136 O   0  0  0  0  0  0  0  0  0  0  0  0
    2.3519   -0.9341   -0.9139 O   0  0  0  0  0  0  0  0  0  0  0  0
   -0.9449   -0.2265    1.2099 H   0  0  0  0  0  0  0  0  0  0  0  0
    0.9449   -0.2262   -1.2102 H   0  0  0  0  0  0  0  0  0  0  0  0
    4.8091   -1.2195   -0.5233 O   0  0  0  0  0  0  0  0  0  0  0  0
    3.5579   -0.6299   -0.1262 S   0  0  0  0  0  0  0  0  0  0  0  0
    3.1999   -1.0210    1.5704 C   0  0  0  0  0  0  0  0  0  0  0  0
   -2.2831   -0.5060   -1.8634 H   0  0  0  0  0  0  0  0  0  0  0  0
   -4.0494   -0.7015   -2.1746 H   0  0  0  0  0  0  0  0  0  0  0  0
   -3.0678   -2.1014   -1.6281 H   0  0  0  0  0  0  0  0  0  0  0  0
    4.0492   -0.7026    2.1745 H   0  0  0  0  0  0  0  0  0  0  0  0
    3.0678   -2.1022    1.6273 H   0  0  0  0  0  0  0  0  0  0  0  0
    2.2829   -0.5070    1.8633 H   0  0  0  0  0  0  0  0  0  0  0  0
  1  2  2  0  0  0  0
  1  5  1  0  0  0  0
  3  1  2  0  0  0  0
  4  7  1  0  0  0  0
  6 16  1  0  0  0  0
  6  1  1  0  0  0  0
  7  8  1  0  0  0  0
  8 10  2  0  0  0  0
  8 13  2  0  0  0  0
  9  8  1  0  0  0  0
 11 12  1  0  0  0  0
 14 18  2  0  0  0  0
 15  5  1  0  0  0  0
 17 18  2  0  0  0  0
 18 11  1  0  0  0  0
 18 19  1  0  0  0  0
 19 24  1  0  0  0  0
 19 25  1  0  0  0  0
 19 23  1  0  0  0  0
 20  9  1  0  0  0  0
 21  9  1  0  0  0  0
 22  9  1  0  0  0  0
M  END
$$$$
