41
3sa2dma-19
S        3.66546800      -0.21652600      -0.63448500
O        3.06139200       1.08814600      -0.38155100
O        4.87210400      -0.32473700      -1.40065100
O        3.91339400      -0.93573200       0.74852400
O        2.56207500      -1.11978200      -1.33425800
H        1.68283100      -0.93942100      -0.89821900
H        3.09257800      -0.90944600       1.30984300
S       -2.97012100       1.06949000      -0.28536100
O       -2.20336000       2.32285700      -0.16323800
O       -2.73774600       0.30382100      -1.51574800
O       -2.88409600       0.23099700       0.93714200
O       -4.51933600       1.51063800      -0.41841200
H       -4.72862200       2.12385800       0.29989500
H       -1.45220900       0.27495900       1.80193000
S        0.27722200      -0.91878100       1.42423700
O       -0.51501200       0.26464000       2.14170300
O        0.35840000      -0.50747900      -0.02242100
O        1.58476100      -0.92359800       2.08140400
O       -0.52318700      -2.14615100       1.55903500
C        1.13361800       2.99432700       1.12903500
N        0.55687900       2.38052800      -0.08986500
C        0.91243700       3.07259900      -1.34930800
H        0.86943200       1.39981800      -0.14447800
H        0.77114700       4.01989200       1.21182200
H        0.81133700       2.40774100       1.98904100
H        2.21980100       2.97126300       1.04683500
H        0.55452700       4.10161300      -1.29828100
H        1.99427200       3.03963300      -1.47245000
H        0.42476400       2.55582800      -2.17579400
H       -0.47889500       2.34083700      -0.01663900
C       -3.42812600      -2.84120100      -0.43131100
N       -2.08732000      -2.28724900      -0.71855000
C       -1.29525800      -3.05158100      -1.70485100
H       -2.20688200      -1.30887800      -1.05078200
H       -3.32155000      -3.84895900      -0.02768400
H       -3.90966200      -2.19186400       0.29972500
H       -4.01239700      -2.86299100      -1.35211900
H       -1.14393900      -4.06644400      -1.33507100
H       -1.82773900      -3.07380600      -2.65660000
H       -0.33188800      -2.55764300      -1.82704000
H       -1.54607700      -2.22971300       0.17109600
41
3sa2dma-2
S       -2.37090500       1.67578100      -0.44461200
O       -1.83270800       0.66956400      -1.59333100
O       -1.25963600       2.59043500      -0.12858600
O       -2.63476100       0.76015300       0.73454100
O       -3.57843200       2.24644700      -0.99436700
H       -1.34308700       0.14229500       1.48616200
H       -0.98990600       0.25248600      -1.28796500
S        3.76965000      -0.67314600      -0.65138500
O        2.65716500      -0.92922900      -1.74975000
O        5.04570100      -0.70217400      -1.30064100
O        3.67645200      -1.93562800       0.28692900
O        3.36689700       0.50526000       0.11816500
H        2.79641600      -1.95746200       0.75022700
H        1.75575400      -0.79004500      -1.35328800
S        0.02655000      -1.33161300       0.73361600
O        1.22490800      -1.91126200       1.33828000
O       -0.50499300      -0.29784200       1.82480600
O        0.35339000      -0.48441500      -0.47213300
O       -1.05797600      -2.27890300       0.44208000
H       -2.69341400      -1.98850000      -0.19253800
N       -3.65185500      -1.59536600      -0.14710700
H       -3.46419000      -0.62772900       0.20729300
C       -4.27469000      -1.52552500      -1.48847800
H       -3.62956000      -0.92871200      -2.13278400
H       -4.38873200      -2.53534700      -1.88506000
H       -5.24882800      -1.04316500      -1.40107400
C       -4.42408100      -2.35114500       0.86226800
H       -4.56877800      -3.37477200       0.51445300
H       -3.86034300      -2.35692000       1.79499200
H       -5.38978900      -1.86671100       1.01098800
C        1.46807500       2.32634500       2.16048500
N        1.31006600       2.22269100       0.69195800
C        1.92779000       3.33651700      -0.06320000
H        1.75492300       1.34578700       0.38123000
H        0.98951600       3.24451300       2.50336100
H        0.99152400       1.45915000       2.61623600
H        2.53221700       2.33805000       2.39829700
H        1.46698400       4.27383400       0.24980100
H        3.00008500       3.34465700       0.13258000
H        1.74658900       3.17663200      -1.12550400
H        0.29980900       2.18793000       0.44235100
41
3sa2dma-13
S       -1.92190500       2.17698000       0.17722100
O       -2.69411700       0.95028600       0.02202400
O       -2.57534300       3.42699200       0.43953900
O       -0.84803300       1.91467900       1.31858000
O       -1.02336000       2.39374700      -1.10278300
H       -0.49587000       1.56414600      -1.29812600
H       -0.81675200       0.93643500       1.54481500
S        1.06082200      -0.70987200      -2.12097200
O        0.50024900       0.31801300      -1.15345200
O        0.01531100      -1.70451200      -2.42503100
O        1.77418300      -0.12350700      -3.23267500
O        2.18471500      -1.45009000      -1.24292600
H        1.75710600      -1.85763600      -0.45039900
S        0.56795800      -1.28298900       1.99755000
O        1.63308400      -0.30181800       2.26181000
O       -0.76332800      -0.64058700       1.83065800
O        0.86069700      -2.27872500       0.96073600
O        0.44394000      -2.19581500       3.32342700
H        0.26609100      -1.62113400       4.08123400
C       -3.19943100      -1.45865600      -1.56850200
N       -2.06865200      -1.76699000      -0.66312700
C       -2.20724200      -3.05069800       0.06051100
H       -1.19833600      -1.78175600      -1.24298900
H       -4.11802500      -1.38724200      -0.98591000
H       -3.00421200      -0.50434300      -2.05295400
H       -3.27488100      -2.25282600      -2.31203000
H       -3.07227000      -2.99625200       0.72232600
H       -2.34223000      -3.84971400      -0.66963000
H       -1.29834200      -3.22348200       0.63438200
H       -1.95068200      -0.99576600       0.00942000
C        2.18422400       2.98309300       0.64654400
N        2.41844500       1.55359400       0.34149700
C        3.75545400       1.25383900      -0.22311900
H        2.24986000       0.96878000       1.17995800
H        2.25940200       3.55786500      -0.27726600
H        1.18489800       3.08723400       1.06724300
H        2.93560000       3.32440200       1.36007500
H        3.87770800       1.81053800      -1.15292700
H        4.52204300       1.54571600       0.49588500
H        3.80840300       0.18597400      -0.43328900
H        1.68991300       1.20216100      -0.32104800
