42
2sa1fa1tma1dma-1
S        1.41755000      -0.86336600      -0.53412400
O        1.75771700       0.58804700      -0.57856200
O        1.21027500      -1.33866600       0.84888900
O        0.31948900      -1.23401500      -1.44114800
O        2.67682500      -1.63482600      -1.12964700
H        3.49830000      -1.32054600      -0.67222400
S       -2.70190300       0.15456800      -0.47664700
O       -3.19114900      -1.23972600      -0.48967600
O       -3.70114900       1.20859500      -0.54071200
O       -1.72126200       0.32143900       0.65321300
O       -1.82410900       0.36783400      -1.80865700
H       -0.40405800      -2.02823300       0.87896400
H       -1.03389900      -0.22627300      -1.77231500
H        5.89152700       0.99249000       0.84251500
H        3.17877000       1.12568500      -0.03097800
C        4.96060100       0.59243900       0.42313800
O        4.02759700       1.50938100       0.34385700
O        4.85323500      -0.57388400       0.08528700
N       -0.68489500       2.74862800       0.52996700
C       -1.84124600       3.56565600       0.97311300
H       -2.70013300       3.30857700       0.35063200
H       -2.06790300       3.31951200       2.01091100
H       -1.59153800       4.62538400       0.88273700
C        0.47898300       2.86144100       1.43943500
H        0.16140900       2.60455900       2.45058100
H        1.23977000       2.15795600       1.10352800
H        0.86152900       3.88457000       1.41483500
C       -0.31627300       3.04077200      -0.88056900
H        0.46808500       2.34457200      -1.17778900
H       -1.19467000       2.88532200      -1.50652900
H        0.03056200       4.07502800      -0.94762300
H       -1.01931200       1.73790100       0.56875100
N       -1.25029300      -2.63438000       0.85929300
C       -1.78632900      -2.75238600       2.22900600
C       -0.89017500      -3.91345900       0.21486200
H       -1.96288800      -2.13739700       0.27637000
H       -1.03679500      -3.21439800       2.87354500
H       -2.02088100      -1.74870000       2.58313900
H       -2.69302700      -3.35899200       2.21090800
H       -0.13168500      -4.41829700       0.81498600
H       -1.78138200      -4.53711100       0.12976500
H       -0.48892900      -3.69078400      -0.77385900
42
2sa1fa1tma1dma-2
S        1.42827700      -0.09736600      -1.03968300
O        1.71020600      -0.59264100       0.35681700
O        0.48193400      -0.99117100      -1.72604700
O        1.08421700       1.32455100      -1.04951800
O        2.79436100      -0.29224800      -1.83421900
H        3.50987300       0.16981100      -1.32890800
S       -2.58541100      -0.66591400      -0.18036900
O       -2.56362900      -2.14351300      -0.11157400
O       -3.87738800      -0.01889900      -0.01428200
O       -1.51404300      -0.11464500       0.71831800
O       -2.12935100      -0.25102200      -1.66632500
H        0.48915500      -1.83652100       0.68406300
H       -1.19191400      -0.53404800      -1.80438700
H        5.23572500       1.67178600       1.57077400
H        2.78387700       0.25023600       1.21514500
C        4.47432100       1.13218400       0.99391100
O        3.47120000       0.75547700       1.74753200
O        4.59644200       0.93515100      -0.20313200
N       -1.49410300       2.53965500       0.48519900
C       -2.72422600       2.82435400       1.26598700
H       -3.53728200       2.22209400       0.85711400
H       -2.55391700       2.53871000       2.30441100
H       -2.95008900       3.89118400       1.20073400
C       -0.29187300       3.17778500       1.07257900
H       -0.17995000       2.83190300       2.10102500
H        0.57525400       2.87451700       0.48615600
H       -0.41942500       4.26291100       1.05495000
C       -1.66696000       2.89203300      -0.94935500
H       -0.77011600       2.58211200      -1.48451100
H       -2.52856100       2.34808400      -1.33657300
H       -1.82213900       3.97072100      -1.03050200
H       -1.36605900       1.48851000       0.53666900
N       -0.05199500      -2.71626900       0.79553400
C       -0.25579200      -2.97461400       2.23407500
C        0.64774900      -3.78793700       0.05848500
H       -0.99127100      -2.54063400       0.36436800
H        0.71287100      -3.09447400       2.72228000
H       -0.78825400      -2.12208000       2.65533100
H       -0.85130300      -3.88032500       2.35662600
H        1.62909600      -3.95050000       0.50692100
H        0.05651200      -4.70375400       0.10468400
H        0.76384500      -3.46261200      -0.97531500
42
2sa1fa1tma1dma-3
S       -1.47153700      -0.26769800      -0.84823100
O       -1.77705700      -1.16107300       0.30230400
O       -1.45247800       1.15538700      -0.45532400
O       -0.27937600      -0.70071200      -1.59772800
O       -2.66420600      -0.44993800      -1.88590600
H       -3.52024700      -0.33807200      -1.39813600
S        2.59627100       0.73263400      -0.14951400
O        3.69288600      -0.18095400      -0.46110200
O        2.97310200       2.08783600       0.28945500
O        1.76954100       1.02235900      -1.50413400
O        1.58917400       0.11842300       0.77685500
H        1.05007000       0.34943400      -1.61768100
H       -0.14942600       2.11347000       0.10819300
H       -5.92423300      -0.30162200       1.37514300
H       -3.14707000      -0.92004800       1.13225100
C       -4.97566100      -0.42142900       0.83749100
O       -4.01054800      -0.80515500       1.63309800
O       -4.88827900      -0.20796400      -0.36064700
N        1.68606300      -2.55000900       0.49875600
C        2.92833200      -2.82192800       1.26372800
H        3.73109100      -2.22494100       0.82972400
H        2.77266500      -2.52517100       2.30130000
H        3.15534900      -3.88906500       1.20713700
C        0.50421600      -3.22980900       1.08146600
H        0.41745400      -2.94430900       2.13043900
H       -0.38831200      -2.89698300       0.55082600
H        0.63957000      -4.31065500       0.99683400
C        1.85644300      -2.87611400      -0.94217900
H        0.94494700      -2.59043200      -1.46654300
H        2.69810900      -2.29506000      -1.32116700
H        2.04890300      -3.94716500      -1.04039300
H        1.52930000      -1.50570300       0.57041300
N        0.34089800       2.92759300       0.53828700
C        0.02379000       2.92423900       1.98104800
C       -0.06779100       4.14339800      -0.19209300
H        1.36595100       2.76564400       0.42337900
H       -1.05672200       2.99929900       2.10956700
H        0.38605000       1.98341900       2.39524100
H        0.52291100       3.76577200       2.46410300
H       -1.14896600       4.26167300      -0.11057300
H        0.44049900       5.01085400       0.23165900
H        0.20958900       4.02177500      -1.23883700
