26
1sa1ma1eda-02
S       -1.58160000      -0.73573100      -0.00129600
O       -1.06460000      -0.29273400       1.29440500
O       -2.33687100       0.27488200      -0.75946100
O       -0.54318700      -1.40563300      -0.83601200
O       -2.64937000      -1.90346700       0.38155000
H       -3.16144000      -2.10149800      -0.41365000
H        2.59206800       1.13287400       0.89232700
H        1.19612400       0.10528900       1.32474000
H        3.34859300      -1.15364600       1.60505200
H        2.31590900      -1.86850100       0.36265300
H        4.73606800      -0.29473100      -0.11399300
H        4.29025200      -1.72237200      -0.77264900
H        0.87870300       1.32938500      -0.78661600
H        2.21278200       0.39099300      -1.40527500
C        2.02830200       0.23223800       0.62920200
C        2.92966000      -0.99485400       0.60320900
N        1.45275600       0.42781800      -0.72204400
N        3.94065900      -0.83039400      -0.44461500
H        0.77003200      -0.34906200      -0.91553500
N       -0.35932100       2.53055900      -0.68460500
H       -0.32489800       3.31613300      -1.32656800
C       -0.50153100       2.99876800       0.70274600
H       -1.34656900       3.68295700       0.84206000
H       -0.65959500       2.12724000       1.34257200
H        0.41389000       3.50982400       1.01672500
H       -1.18132700       1.96964300      -0.92706600
26
1sa1ma1eda-01
S       -1.37513300      -1.08123600       0.05711700
O       -0.33302400      -1.01952700      -1.01031200
O       -1.82404500      -2.43032700       0.36267300
O       -1.02853800      -0.20845500       1.18967500
O       -2.67760100      -0.30945400      -0.59187900
H       -3.17753600      -0.96669800      -1.09286000
H        2.72403000       1.01548700       1.32082800
H        1.34519100      -0.10070400       1.50892600
H        3.47333000      -1.37898200       1.15959600
H        2.32935600      -1.63021700      -0.16389300
H        4.75627000      -0.00309500      -0.27486900
H        4.19471900      -1.09701000      -1.35218000
H        0.84233400       1.71349900      -0.01843000
H        2.12693500       1.12075700      -1.03445800
C        2.11741400       0.25254800       0.82287200
C        2.98290300      -0.89023000       0.30803400
N        1.42924700       0.88361100      -0.32666400
N        3.91387200      -0.37560400      -0.69936700
H        0.74971100       0.17956300      -0.72744700
N       -0.52421900       2.63729600       0.58048000
H       -0.91912000       1.86050500       1.11498700
C       -1.41710600       2.94400600      -0.54554900
H       -2.40489900       3.30078900      -0.23147000
H       -0.95808400       3.70281400      -1.18575700
H       -1.56749100       2.03400200      -1.13136000
H       -0.43851000       3.43609300       1.19994900
26
1sa1ma1eda-03
S       -1.81883900      -0.34142200      -0.09784000
O       -3.25070300      -0.37625100      -0.34395600
O       -1.28269800       0.93343000       0.41930500
O       -1.54495400      -1.43057300       1.11795000
O       -0.95725400      -0.89441300      -1.17328200
H       -2.32192800      -1.41634500       1.69111900
H        0.56311500      -0.26199700      -1.09381800
H        2.65874300       0.17841200       0.95305100
H        0.90547000      -0.03360500       1.20538600
H        2.11644700      -2.19206200       1.58868200
H        1.00245600      -2.28873500       0.22353900
H        3.91938900      -2.15124900       0.06157400
H        2.88101500      -3.10797900      -0.76284700
H        1.38491300       1.19609700      -0.83251100
H        2.22715300      -0.21667000      -1.40386300
C        1.75787500      -0.32545100       0.58890600
C        1.93843000      -1.83776200       0.56563100
N        1.49104700       0.14218100      -0.79242200
N        3.00590700      -2.17982600      -0.37791000
N        0.70805800       2.80950100      -0.57790900
H        0.66359700       3.47778300      -1.34010100
C        1.17867400       3.45508700       0.65135300
H        0.57210900       4.31691900       0.95499700
H        1.14924800       2.72412000       1.46346700
H        2.21350600       3.78584400       0.52487900
H       -0.23390300       2.44043100      -0.42591700
