68
4sa1am1dma2tma-9
S        3.06483000      -1.77796500       0.08120100
O        4.04303100      -1.17911100      -0.86076400
O        3.63612800      -2.40262400       1.26442200
O        1.97771700      -0.79621200       0.37690100
O        2.32191900      -2.97904500      -0.69786300
H        1.69712100      -2.60197000      -1.36388600
H        1.94627100       0.82626500      -1.92206300
S        0.10276300       2.68719800      -1.49739900
O       -1.18009700       2.99477200      -0.84185200
O        1.06929700       3.77265800      -1.55969700
O        0.70664900       1.43597400      -0.89841700
O       -0.18756300       2.28895500      -3.01744800
H       -0.63223700       1.40124700      -3.05216700
H        1.57786100       1.36078100       0.98424800
S       -1.62840500       0.85050500       2.24611300
O       -0.18361700       0.75980800       1.95083200
O       -1.98301900       1.75731700       3.32333100
O       -2.33165300       1.39767100       0.88414000
O       -2.24280000      -0.50724000       2.33104400
H       -0.24955000       0.02537500      -0.61759900
H       -1.79000300       2.05264200       0.36553500
S       -0.77315300      -1.34073000      -2.21381600
O       -1.70906200      -2.45893200      -2.17401600
O       -0.82779600      -0.77961700      -0.69658700
O        0.64022600      -1.73894100      -2.46593800
O       -1.18157000      -0.21215600      -3.07644500
H       -3.08153600      -0.21472800       0.18980500
N        2.51588400       0.26232300      -2.59192100
H        3.26709900      -0.22566100      -2.04779600
H        2.87348100       0.83863600      -3.34743400
H        1.86373300      -0.46456500      -2.93271100
C       -0.32226200      -3.45716300       1.11408500
N       -0.03591500      -2.15717000       1.75753000
C        0.68751300      -2.26492400       3.04363600
H        0.54809200      -1.57110300       1.12683600
H       -0.94967900      -4.05255800       1.78023600
H       -0.83810000      -3.27517400       0.17067200
H        0.61949600      -3.97017700       0.91756500
H        0.11515300      -2.89240700       3.72854100
H        1.67569300      -2.68925000       2.85663500
H        0.78422700      -1.26003200       3.45337200
H       -0.91413900      -1.62227400       1.90654800
N        2.29345500       1.93046600       1.46808800
C        3.42039500       2.12376200       0.52044800
C        1.65285700       3.22519400       1.82613100
C        2.71553200       1.18310200       2.68045700
H        0.77452700       3.01404600       2.43484200
H        2.37541400       3.82721700       2.38130500
H        1.36411500       3.73928700       0.90905600
H        3.79815500       1.14478400       0.22274300
H        3.04797600       2.67623200      -0.34320000
H        4.20384200       2.69605500       1.02158500
H        3.10387500       0.21194800       2.37580300
H        3.48295200       1.76329300       3.19716600
H        1.83850400       1.05227500       3.31242600
N       -4.00544200      -0.59339400      -0.08067300
C       -4.98608400       0.02606500       0.85005700
C       -4.24953100      -0.17876600      -1.48795700
C       -3.96296600      -2.06983900       0.07600400
H       -3.53068900      -0.67432500      -2.13859000
H       -5.26797800      -0.45988800      -1.76333400
H       -4.12199100       0.90205700      -1.55366900
H       -4.69979400      -0.23322000       1.86873400
H       -4.94466800       1.10754500       0.72972700
H       -5.98109600      -0.35406900       0.61011800
H       -3.70831700      -2.28677500       1.11330400
H       -4.94711100      -2.47476600      -0.16965500
H       -3.20819100      -2.46723100      -0.60374100
68
4sa1am1dma2tma-46
S       -0.11606400      -2.45898000      -1.59241100
O       -0.05185400      -1.73417200      -2.87603000
O        0.62304000      -3.71042200      -1.51649000
O        0.61848400      -1.52516000      -0.50037100
O       -1.51840500      -2.56972500      -1.08759000
H       -2.54014200      -1.41874700      -1.37813600
H        0.45163000      -0.55881700      -0.68017300
S        1.30187800       1.06480600       2.53574600
O        0.56125500       2.34407300       2.48779700
O        1.67701400       0.56392200       3.84483100
O        0.23657200      -0.05357800       2.00804700
O        2.41637400       1.04942500       1.54389000
H        2.36368800       2.23228200       0.36314800
H       -0.28021700       0.28406800       1.25090200
S       -3.08502500       0.50595900      -0.53228500
O       -4.37952600       0.78043900       0.06877300
O       -2.55815500       1.62366300      -1.36826000
O       -2.03803400       0.08053100       0.45197500
O       -3.26450500      -0.72964800      -1.52118900
S        1.68817400       1.60767000      -1.52995500
O        2.19407000       2.71499600      -0.49476500
O        0.43678200       1.04415900      -0.91827000
O        1.38744000       2.35354000      -2.75871300
O        2.73860100       0.58724700      -1.64175600
N       -0.93257200       0.82331600      -3.44801600
H       -0.61391300      -0.15237500      -3.26108100
H       -1.54993400       1.12727100      -2.65816900
H       -0.10700300       1.44636300      -3.45983600
H       -1.44437500       0.85865700      -4.32506600
C       -0.64438200       4.40720300      -0.38712300
N       -1.00060100       3.21753700       0.41643600
C       -2.21711300       3.38928400       1.24607900
H       -1.14195400       2.42287100      -0.23076200
H       -0.47444100       5.24958000       0.28454100
H        0.26387600       4.19052600      -0.94836100
H       -1.46905400       4.62700200      -1.06627900
H       -2.06015800       4.22688500       1.92649600
H       -3.07202800       3.56789600       0.59404800
H       -2.37487400       2.47474400       1.81569800
H       -0.22525500       2.94990700       1.05808100
N        3.53752100      -1.39379600       0.11231600
C        3.71442300      -2.30223900      -1.05359500
C        4.76198700      -0.59493700       0.38320200
C        3.07750900      -2.12596500       1.31746100
H        4.54487800       0.08743000       1.20424500
H        5.57457700      -1.27746100       0.64103500
H        5.00099700      -0.02737300      -0.51533800
H        2.80076200      -2.88091000      -1.19415800
H        3.90281500      -1.68806100      -1.93367000
H        4.55907100      -2.96578400      -0.85416000
H        2.12636900      -2.59696000       1.07709500
H        3.82987500      -2.87566300       1.57122500
H        2.95337100      -1.41435700       2.13351500
H        2.81849300      -0.70917400      -0.16766100
N       -2.10688700      -2.25602300       1.82733000
C       -2.42857400      -1.46985400       3.04688400
C       -3.28310800      -3.02488400       1.34624200
C       -0.91257000      -3.11877700       2.02572800
H       -3.00278500      -3.53934100       0.42791900
H       -3.58091200      -3.73482000       2.12099900
H       -4.09432800      -2.32464500       1.14147400
H       -1.54481400      -0.89744900       3.32860100
H       -3.24724600      -0.79070300       2.80887900
H       -2.71618800      -2.15918700       3.84365900
H       -0.07990600      -2.47007100       2.29533600
H       -1.12810200      -3.83137800       2.82499300
H       -0.69880900      -3.63939800       1.09233000
H       -1.89187300      -1.55463800       1.09037900
68
4sa1am1dma2tma-28
S       -2.08995600      -0.54489600       2.25451600
O       -0.60511400      -0.37120400       1.55263600
O       -1.74777600      -0.86636700       3.63300500
O       -2.73943600      -1.63261500       1.47869100
O       -2.74618900       0.75813500       2.04840000
H       -1.91370400      -2.68279300       0.57907400
H       -0.69396000      -0.51307100       0.57367900
S        0.62584500       2.42934600      -1.71936800
O        0.31512900       1.54865600      -2.87263100
O       -0.22556300       3.60988800      -1.61779900
O        0.20393400       1.56931200      -0.40453100
O        2.07824200       2.66862100      -1.56998900
H        3.16758400       1.90325300      -0.53238200
H        0.83963600       0.80712800      -0.30653300
S        3.43675000      -0.15921000      -0.02602000
O        1.93303400      -0.34646000      -0.00379400
O        3.65953500       1.40558800       0.17569300
O        4.07014600      -0.80240300       1.11424300
O        3.94888600      -0.52339800      -1.36056700
S       -1.04744900      -2.41051200      -1.38931300
O       -2.22492900      -2.64057700      -2.21343400
O       -1.23814000      -3.17668200       0.02009000
O        0.22892000      -2.94524600      -1.89265300
O       -0.89808200      -0.96307300      -1.00927800
N        1.75512400      -0.81708000      -3.02649400
H        1.19378500       0.06486200      -2.97075200
H        1.97498400      -1.02033200      -3.99757400
H        2.63582500      -0.69605400      -2.47796300
H        1.21395000      -1.60082200      -2.61625900
C        2.30030600      -3.64453100       0.66434700
N        1.32935200      -2.70112200       1.26983300
C        1.46866000      -2.53684400       2.73575700
H        1.46525700      -1.76989900       0.81618100
H        2.17895900      -4.62606500       1.12474300
H        2.08805300      -3.70385500      -0.40312500
H        3.30618900      -3.25939300       0.83644500
H        1.38730000      -3.51395100       3.21428400
H        2.44793200      -2.09756100       2.93127300
H        0.67295400      -1.88025500       3.08813400
H        0.37362500      -2.99270800       1.01930500
N        0.00724300       2.41649200       2.33210800
C       -0.91140400       3.48235400       1.84910500
C       -0.25505300       2.06459800       3.75353600
C        1.43507100       2.77723100       2.11870700
H        0.37777100       1.22094200       4.02739800
H       -0.02361400       2.93293300       4.37326400
H       -1.29998100       1.77726500       3.85867500
H       -0.71904000       3.65521300       0.78888300
H       -1.93281300       3.13381800       2.00095300
H       -0.72159000       4.38973500       2.42632000
H        1.57478400       3.08130400       1.08365800
H        1.68898000       3.59625900       2.79429400
H        2.05762100       1.90662200       2.32429800
H       -0.18884100       1.57163200       1.76937100
N       -3.03773500       0.65289000      -1.59293300
C       -2.90892200       0.71450600      -3.07230800
C       -4.18286700      -0.19625900      -1.16523200
C       -3.10125800       2.00347900      -0.97602700
H       -4.18147000      -0.25696500      -0.07661400
H       -5.10674300       0.25894400      -1.52870300
H       -4.04727700      -1.19216500      -1.58760200
H       -1.99594700       1.26149800      -3.31378100
H       -2.84330700      -0.30747100      -3.44811800
H       -3.78760700       1.21724300      -3.48195200
H       -2.24123200       2.59063800      -1.30120600
H       -4.02900000       2.48315300      -1.29687900
H       -3.09212700       1.87283400       0.10697000
H       -2.17584200       0.16958800      -1.26437900
