17
1am1tma-01
N       -0.46164500       0.00001300       0.10335000
C       -0.43253100      -1.19781300      -0.72136400
H        0.47566800      -1.19773400      -1.33103900
H       -0.41769400      -2.08618400      -0.08264000
H       -1.30941900      -1.26744900      -1.39248100
C       -1.60419100      -0.00019000       0.99993400
H       -1.57303000      -0.88601300       1.64128100
H       -1.57358100       0.88587300       1.64098100
H       -2.56857100      -0.00056200       0.45687300
C       -0.43274700       1.19798100      -0.72115700
H       -0.41778100       2.08624000      -0.08228300
H        0.47532300       1.19801700      -1.33102000
H       -1.30977200       1.26771200      -1.39208800
N        2.63761200       0.00007100       0.27270000
H        3.07692300       0.81827500       0.67988400
H        3.07670400      -0.81868600       0.67901300
H        1.65027000       0.00005500       0.53669000
