65
4sa1ma3dma-15
S        0.98239000      -3.16433300       0.05058200
O        0.97552900      -1.68070200       0.19998700
O        0.25060200      -3.57351300      -1.16540000
O        2.34740700      -3.69651600       0.16644600
O        0.19234100      -3.75026300       1.30356100
H       -0.77247900      -3.54120600       1.18306500
S       -1.05841900       3.16193400      -0.06434900
O       -1.12630300       1.86650900       0.66095700
O       -0.34861500       2.99321900      -1.36554500
O       -2.38731400       3.76717300      -0.18802100
O       -0.19267400       4.16552200       0.80316400
H        0.74778900       3.83953600       0.83075000
S       -2.80517800      -2.08067400      -0.21904400
O       -2.13859000      -0.73251500      -0.10697800
O       -2.34655600      -2.96470500       0.87194600
O       -4.24609000      -1.94522500      -0.37451400
O       -2.26527300      -2.70268300      -1.58804300
H       -1.36144000      -3.09153700      -1.44577600
S        2.79566900       2.13640000      -0.19433400
O        2.11678700       0.80831200       0.01094700
O        2.29289000       3.11615700       0.79091000
O        4.23999100       1.99308600      -0.29226500
O        2.31519000       2.63630000      -1.63990600
H        1.36869200       2.91866800      -1.58000600
C        0.23377000      -0.59444700      -2.87978200
N       -0.05238900       0.18161300      -1.65713500
H        0.77452900       0.23724500      -1.03745000
H       -0.31470500       1.15930200      -1.84351100
H        0.51133100      -1.60832700      -2.59019600
H       -0.66094800      -0.63243200      -3.50089500
H        1.04554900      -0.11271400      -3.42596900
H       -0.81052500      -0.24926500      -1.08932600
C        4.94544900      -1.04022500       0.86087300
N        3.85953200      -1.32496300      -0.10226700
C        4.27736400      -1.24001400      -1.51953700
H        3.43160000      -2.25574200       0.07591600
H        5.28803200      -0.01696800       0.69973200
H        4.54953600      -1.14562900       1.87122700
H        5.75836700      -1.75192100       0.71014800
H        4.61978800      -0.22330100      -1.71839700
H        5.07381600      -1.96126900      -1.70687100
H        3.41542200      -1.47720100      -2.14379000
H        3.09949000      -0.62246300       0.03146300
C       -4.70346400       1.08717900       1.19194600
N       -3.93511900       1.34588200      -0.04539700
C       -4.72401500       1.18574000      -1.28833300
H       -3.50608100       2.28876700      -0.01658400
H       -5.06274500       0.05730500       1.16249100
H       -4.03729700       1.22945900       2.04283500
H       -5.53933400       1.78539200       1.25376600
H       -5.05119800       0.14719500      -1.35452500
H       -5.57696900       1.86537200      -1.26470500
H       -4.08450500       1.43245200      -2.13613600
H       -3.14647700       0.65909800      -0.06556500
C       -0.83532800      -0.72664200       2.94264800
N        0.18733700       0.03730100       2.19383700
C        1.19506200       0.68937200       3.05732300
H        0.63579000      -0.60360100       1.50928800
H       -1.38273100      -0.04266400       3.59341000
H       -1.50907500      -1.19925400       2.22991500
H       -0.33905800      -1.49296200       3.54012900
H        0.68074500       1.32589200       3.77913300
H        1.76423500      -0.07800700       3.58498000
H        1.84873000       1.29837700       2.43561600
H       -0.27240500       0.76332900       1.60810900
65
4sa1ma3dma-18
S        2.72588500      -2.12233500      -0.52616300
O        2.14737700      -0.75646100      -0.30225900
O        1.83892600      -2.90033200      -1.42358800
O        4.13316200      -2.07279700      -0.89090300
O        2.68544300      -2.84116100       0.90578300
H        1.74927600      -3.03844800       1.15582700
S       -2.64908600       2.10796700      -0.56999000
O       -2.24938100       0.88163300       0.18340800
O       -1.60391900       2.42748400      -1.58648800
O       -4.01149700       2.04812800      -1.07616600
O       -2.62186000       3.29872600       0.49531300
H       -1.71855000       3.33819900       0.89814900
S       -1.00149600      -3.03673800       0.53096700
O       -1.07011600      -1.58311400       0.16796300
O        0.04359700      -3.27092700       1.54332400
O       -2.34083300      -3.53991800       0.85656500
O       -0.58221600      -3.79585600      -0.80151800
H        0.35127000      -3.53507900      -1.04511600
S        1.02126000       3.08021600       0.34645900
O        1.16695300       1.72570900      -0.22292700
O       -0.03755400       3.07782800       1.40141700
O        2.30524200       3.64881200       0.76953200
O        0.49488200       4.03034000      -0.82340700
H       -0.30520700       3.59973800      -1.21528300
C       -0.00057600      -0.64115700      -3.23052600
N       -0.08155200      -0.05449400      -1.87934300
H       -0.51382200       0.88360500      -1.85341000
H       -0.60982900      -0.66000400      -1.22668000
H        0.57777200       0.01920100      -3.87654500
H        0.49241100      -1.61097300      -3.15578700
H       -1.00542200      -0.75472100      -3.63795200
H        0.84425200       0.00586800      -1.42812400
C        4.94520400       0.74687400       0.93652500
N        3.91585500       1.30317600       0.03155800
C        4.38295000       1.50613900      -1.35832700
H        3.12092100       0.62552000      -0.02041000
H        5.80423300       1.41842900       0.97034800
H        4.51626200       0.64623300       1.93380700
H        5.23562300      -0.23583800       0.56039700
H        5.22485200       2.19971800      -1.36267100
H        4.67899600       0.53696600      -1.76322300
H        3.55552600       1.92131300      -1.93357900
H        3.51990500       2.18765100       0.39480300
C       -5.13910100      -0.81725700       0.58037600
N       -3.88157300      -1.28158100      -0.04407200
C       -3.98237600      -1.49505000      -1.50543300
H       -3.15355700      -0.54441000       0.10589800
H       -5.92949200      -1.54712500       0.39977200
H       -4.97699200      -0.70698400       1.65271100
H       -5.39823300       0.15001700       0.14608200
H       -4.75845800      -2.23285600      -1.71289600
H       -4.22335100      -0.54034700      -1.97660100
H       -3.02115100      -1.86807500      -1.85983900
H       -3.51870700      -2.14609000       0.39777500
C       -1.37434700       0.18924000       3.06196900
N       -0.26105000       0.27512300       2.09334600
C        1.04348100      -0.14937000       2.64624100
H       -0.49601000      -0.32018700       1.27657900
H       -1.13495500       0.79609900       3.93637000
H       -2.27166900       0.57004600       2.57604900
H       -1.50636000      -0.85413900       3.35395600
H        1.33386300       0.53971800       3.44101700
H        0.94543800      -1.16503900       3.03175900
H        1.76583100      -0.14696100       1.83188700
H       -0.19849000       1.24638000       1.74080600
65
4sa1ma3dma-19
S       -1.96459000       2.72791500      -0.01500000
O       -1.88928900       1.39426700       0.66629100
O       -1.12934700       2.69875700      -1.25384900
O       -3.34057100       3.15117500      -0.22160500
O       -1.30445900       3.78851100       0.95998500
H       -0.30938100       3.77558000       0.90156100
S        1.90690000      -2.70353200       0.02155400
O        1.78119700      -1.29194400       0.52520900
O        1.08834800      -2.88378200      -1.20077800
O        3.30513200      -3.09304300      -0.10380700
O        1.27875100      -3.63521000       1.14902700
H        0.29026200      -3.68271300       1.05421300
S        2.04241300       2.80391000      -0.09708400
O        1.60285200       1.40925100       0.18175300
O        1.37589600       3.76340600       0.80378600
O        3.50428900       2.89718100      -0.17019000
O        1.53818700       3.13475600      -1.58761700
H        0.55280600       3.18130300      -1.55942400
S       -2.04646600      -2.79863000      -0.10136500
O       -1.57860000      -1.38708600       0.03221000
O       -1.40988300      -3.66679300       0.90718900
O       -3.51155000      -2.86570900      -0.16185300
O       -1.54566500      -3.29019500      -1.53810000
H       -0.55511000      -3.29932000      -1.50749700
C        0.41641500      -0.30982400      -2.95614100
N       -0.01741000       0.11844300      -1.61238100
H       -0.57502700      -0.60012800      -1.10927700
H        0.77739900       0.34372500      -0.98994500
H       -0.46088000      -0.52713900      -3.56588900
H        0.99098100       0.49486000      -3.41676500
H        1.01843600      -1.21212900      -2.85279300
H       -0.57115300       0.99122300      -1.63071100
C       -5.23144000       0.50931800       0.57103100
N       -4.10823400      -0.09668600      -0.17745900
C       -4.14026600       0.17787400      -1.63285500
H       -3.21373000       0.28440400       0.19472100
H       -6.17497300       0.13429300       0.17219400
H       -5.13908000       0.23345800       1.62145300
H       -5.16645400       1.59313600       0.46471400
H       -5.05648900      -0.23649100      -2.05505700
H       -4.09689000       1.25709200      -1.78619100
H       -3.27822300      -0.31090400      -2.08734900
H       -4.06217700      -1.12539900      -0.04527700
C        5.19241500      -0.50237200       0.69586400
N        4.11044900       0.09866400      -0.11492500
C        4.21272600      -0.19465200      -1.56292800
H        3.19373500      -0.27625900       0.21282900
H        6.15652700      -0.13572800       0.34070200
H        5.04849400      -0.21310800       1.73690700
H        5.12633700      -1.58693000       0.59946600
H        5.15446100       0.20148400      -1.94468600
H        4.16057200      -1.27535600      -1.70244400
H        3.38156900       0.29812800      -2.06831100
H        4.06340100       1.12714800       0.00514600
C        0.52835900       1.10200100       3.05663200
N       -0.02723900       0.00680000       2.22922300
C       -0.60971100      -1.08912300       3.03679900
H       -0.73860000       0.41390000       1.59347000
H        1.33968600       0.70718100       3.67003900
H        0.89883300       1.88793100       2.40289000
H       -0.26464600       1.49234400       3.69610800
H        0.16455700      -1.48980400       3.69265900
H       -1.43198100      -0.69108700       3.63337500
H       -0.96941000      -1.87187900       2.37289600
H        0.69777800      -0.39564000       1.60377100
