15
1fa1dma-1
H        3.08582700       0.00029700       0.16270700
H        0.31681900       0.00183300       0.92026400
C        2.00072600      -0.00005400      -0.01853200
O        1.32472600       0.00217500       1.11104300
O        1.52181100      -0.00196100      -1.13503000
N       -1.27472900       0.00076300       0.52507000
C       -1.50665200      -1.21819100      -0.25313700
C       -1.50711700       1.21721300      -0.25697200
H       -1.87487300       0.00195100       1.34410600
H       -0.76875200      -1.25657300      -1.05903400
H       -1.36531500      -2.09196100       0.38753600
H       -2.51437700      -1.25395400      -0.69071000
H       -0.76906300       1.25348400      -1.06281000
H       -2.51476400       1.25104400      -0.69486900
H       -1.36644400       2.09302200       0.38106500
