1goa_2a_1w.log
 OpenBabel02281910283D
Gaussian groups/kemi/kmacke/programs/G09D/g09/g09 # opt freq wb97xd/6-31++g(d,p)
 18 14  0  0  0  0  0  0  0  0999 V2000
   -0.7017   -0.4328    1.4143 H   0  0  0  0  0  0  0  0  0  0  0  0
   -1.7869   -0.5116    1.4472 N   0  0  0  0  0  0  0  0  0  0  0  0
   -2.1551    0.4366    1.2845 H   0  0  0  0  0  0  0  0  0  0  0  0
   -2.1273   -0.9162    2.3127 H   0  0  0  0  0  0  0  0  0  0  0  0
   -2.0566   -1.0724    0.6003 H   0  0  0  0  0  0  0  0  0  0  0  0
   -2.0690   -1.4556   -1.1894 N   0  0  0  0  0  0  0  0  0  0  0  0
   -1.9372   -2.3852   -1.5736 H   0  0  0  0  0  0  0  0  0  0  0  0
   -1.2420   -0.8962   -1.4120 H   0  0  0  0  0  0  0  0  0  0  0  0
   -2.8546   -1.0291   -1.6707 H   0  0  0  0  0  0  0  0  0  0  0  0
    2.5226    0.1578   -0.4802 C   0  0  0  0  0  0  0  0  0  0  0  0
    3.4368   -0.2868    0.1641 O   0  0  0  0  0  0  0  0  0  0  0  0
    2.6686    0.6229   -1.4758 H   0  0  0  0  0  0  0  0  0  0  0  0
    1.0471    0.1314   -0.0245 C   0  0  0  0  0  0  0  0  0  0  0  0
    0.2315    0.5486   -0.8907 O   0  0  0  0  0  0  0  0  0  0  0  0
    0.7939   -0.2968    1.1249 O   0  0  0  0  0  0  0  0  0  0  0  0
   -2.0594    1.7360   -0.1020 O   0  0  0  0  0  0  0  0  0  0  0  0
   -1.2001    1.4062   -0.4600 H   0  0  0  0  0  0  0  0  0  0  0  0
   -2.0430    2.6928   -0.1662 H   0  0  0  0  0  0  0  0  0  0  0  0
  1  2  1  0  0  0  0
  2  4  1  0  0  0  0
  3  2  1  0  0  0  0
  5  2  1  0  0  0  0
  7  6  1  0  0  0  0
  8  6  1  0  0  0  0
  9  6  1  0  0  0  0
 10 13  1  0  0  0  0
 10 11  2  0  0  0  0
 12 10  1  0  0  0  0
 13 15  1  0  0  0  0
 14 13  2  0  0  0  0
 17 16  1  0  0  0  0
 18 16  1  0  0  0  0
M  RAD  1  15   2
M  END
$$$$
