1sa_1goa_2w.log
 OpenBabel02281910283D
Gaussian groups/kemi/kmacke/programs/G09D/g09/g09 # opt freq wb97xd/6-31++g(d,p)
 20 16  0  0  0  0  0  0  0  0999 V2000
   -4.2616    0.7440    0.2679 C   0  0  0  0  0  0  0  0  0  0  0  0
   -5.1428    0.3345   -0.4352 O   0  0  0  0  0  0  0  0  0  0  0  0
   -4.3913    1.5479    1.0141 H   0  0  0  0  0  0  0  0  0  0  0  0
   -2.8266    0.2020    0.2203 C   0  0  0  0  0  0  0  0  0  0  0  0
   -1.9892    0.7105    0.9573 O   0  0  0  0  0  0  0  0  0  0  0  0
   -2.6407   -0.7692   -0.6222 O   0  0  0  0  0  0  0  0  0  0  0  0
   -1.6998   -1.0866   -0.6036 H   0  0  0  0  0  0  0  0  0  0  0  0
    0.9958   -0.6924   -0.0270 S   0  0  0  0  0  0  0  0  0  0  0  0
    2.2834   -1.2815    0.2689 O   0  0  0  0  0  0  0  0  0  0  0  0
   -0.0941   -1.5676   -0.4355 O   0  0  0  0  0  0  0  0  0  0  0  0
    1.1108    0.3973   -1.1387 O   0  0  0  0  0  0  0  0  0  0  0  0
    0.5670    0.1065    1.2633 O   0  0  0  0  0  0  0  0  0  0  0  0
    1.8938    1.0420   -0.9711 H   0  0  0  0  0  0  0  0  0  0  0  0
   -0.3976    0.3628    1.1890 H   0  0  0  0  0  0  0  0  0  0  0  0
    3.0878    1.9369   -0.7170 O   0  0  0  0  0  0  0  0  0  0  0  0
    3.8131    1.4002   -0.3157 H   0  0  0  0  0  0  0  0  0  0  0  0
    2.9492    2.7020   -0.1523 H   0  0  0  0  0  0  0  0  0  0  0  0
    4.6894    0.1593    0.4545 O   0  0  0  0  0  0  0  0  0  0  0  0
    4.0008   -0.5226    0.5279 H   0  0  0  0  0  0  0  0  0  0  0  0
    5.4559   -0.2571    0.0529 H   0  0  0  0  0  0  0  0  0  0  0  0
  1  3  1  0  0  0  0
  2  1  2  0  0  0  0
  4  1  1  0  0  0  0
  4  5  2  0  0  0  0
  6  7  1  0  0  0  0
  6  4  1  0  0  0  0
  8  9  2  0  0  0  0
  8 12  1  0  0  0  0
 10  8  2  0  0  0  0
 11 13  1  0  0  0  0
 11  8  1  0  0  0  0
 14 12  1  0  0  0  0
 15 16  1  0  0  0  0
 15 17  1  0  0  0  0
 18 19  1  0  0  0  0
 20 18  1  0  0  0  0
M  END
$$$$
