2sa_1goa_7w.log
 OpenBabel02281910283D
Gaussian groups/kemi/kmacke/programs/G09D/g09/g09 # opt freq wb97xd/6-31++g(d,p)
 42 30  0  0  0  0  0  0  0  0999 V2000
   -6.2511   -0.1063   -1.0134 C   0  0  0  0  0  0  0  0  0  0  0  0
   -7.2317   -0.1650   -0.3249 O   0  0  0  0  0  0  0  0  0  0  0  0
   -6.2654   -0.1911   -2.1145 H   0  0  0  0  0  0  0  0  0  0  0  0
   -4.8395    0.1022   -0.4487 C   0  0  0  0  0  0  0  0  0  0  0  0
   -3.9078    0.1954   -1.2414 O   0  0  0  0  0  0  0  0  0  0  0  0
   -4.7736    0.1612    0.8461 O   0  0  0  0  0  0  0  0  0  0  0  0
   -3.8362    0.2984    1.1574 H   0  0  0  0  0  0  0  0  0  0  0  0
   -1.1158    0.1228    0.7720 S   0  0  0  0  0  0  0  0  0  0  0  0
    0.1566    0.7930    1.1431 O   0  0  0  0  0  0  0  0  0  0  0  0
   -2.2577    0.5794    1.5733 O   0  0  0  0  0  0  0  0  0  0  0  0
   -0.9788   -1.3432    0.6914 O   0  0  0  0  0  0  0  0  0  0  0  0
   -1.3645    0.6387   -0.7307 O   0  0  0  0  0  0  0  0  0  0  0  0
   -0.4225   -2.1711   -0.9391 H   0  0  0  0  0  0  0  0  0  0  0  0
   -2.3214    0.4782   -0.9791 H   0  0  0  0  0  0  0  0  0  0  0  0
    3.1737   -0.7383   -0.3246 S   0  0  0  0  0  0  0  0  0  0  0  0
    2.1066   -0.4970   -1.3331 O   0  0  0  0  0  0  0  0  0  0  0  0
    3.6693   -2.1246   -0.3279 O   0  0  0  0  0  0  0  0  0  0  0  0
    2.4301   -0.6036    1.1082 O   0  0  0  0  0  0  0  0  0  0  0  0
    4.2379    0.2642   -0.3569 O   0  0  0  0  0  0  0  0  0  0  0  0
    1.6276   -0.0251    1.0403 H   0  0  0  0  0  0  0  0  0  0  0  0
    4.2804    1.9397   -0.1012 H   0  0  0  0  0  0  0  0  0  0  0  0
    0.2233   -2.5351   -1.5708 O   0  0  0  0  0  0  0  0  0  0  0  0
    0.8222   -1.7841   -1.7484 H   0  0  0  0  0  0  0  0  0  0  0  0
    1.1109   -3.4625   -0.8097 H   0  0  0  0  0  0  0  0  0  0  0  0
    1.8771    3.6989   -0.5548 O   0  0  0  0  0  0  0  0  0  0  0  0
    1.3522    3.7122    0.3078 H   0  0  0  0  0  0  0  0  0  0  0  0
    1.4574    2.9614   -1.1694 H   0  0  0  0  0  0  0  0  0  0  0  0
    1.7975   -3.8991   -0.1629 O   0  0  0  0  0  0  0  0  0  0  0  0
    1.4521   -3.6579    0.7703 H   0  0  0  0  0  0  0  0  0  0  0  0
    2.6285   -3.3368   -0.2706 H   0  0  0  0  0  0  0  0  0  0  0  0
    0.4059    3.4695    1.5296 O   0  0  0  0  0  0  0  0  0  0  0  0
    0.5481    3.7892    2.4236 H   0  0  0  0  0  0  0  0  0  0  0  0
    0.2042    2.5128    1.5735 H   0  0  0  0  0  0  0  0  0  0  0  0
    0.9089    1.8685   -1.9404 O   0  0  0  0  0  0  0  0  0  0  0  0
    1.4473    1.0553   -1.8353 H   0  0  0  0  0  0  0  0  0  0  0  0
    0.0215    1.6043   -1.6474 H   0  0  0  0  0  0  0  0  0  0  0  0
    0.9587   -2.9126    2.0339 O   0  0  0  0  0  0  0  0  0  0  0  0
    1.6155   -2.2047    2.1258 H   0  0  0  0  0  0  0  0  0  0  0  0
    0.1408   -2.4420    1.7913 H   0  0  0  0  0  0  0  0  0  0  0  0
    4.2296    2.9203   -0.0247 O   0  0  0  0  0  0  0  0  0  0  0  0
    2.8460    3.4462   -0.3601 H   0  0  0  0  0  0  0  0  0  0  0  0
    5.0089    3.2805   -0.4558 H   0  0  0  0  0  0  0  0  0  0  0  0
  1  4  1  0  0  0  0
  1  2  2  0  0  0  0
  3  1  1  0  0  0  0
  4  6  1  0  0  0  0
  5  4  2  0  0  0  0
  6  7  1  0  0  0  0
  8  9  2  0  0  0  0
  8 10  1  0  0  0  0
 11  8  2  0  0  0  0
 12  8  1  0  0  0  0
 14 12  1  0  0  0  0
 15 18  1  0  0  0  0
 16 15  2  0  0  0  0
 17 15  1  0  0  0  0
 19 15  2  0  0  0  0
 20 18  1  0  0  0  0
 21 40  1  0  0  0  0
 22 13  1  0  0  0  0
 23 22  1  0  0  0  0
 25 41  1  0  0  0  0
 25 26  1  0  0  0  0
 28 29  1  0  0  0  0
 30 28  1  0  0  0  0
 31 33  1  0  0  0  0
 31 32  1  0  0  0  0
 34 35  1  0  0  0  0
 34 36  1  0  0  0  0
 37 38  1  0  0  0  0
 39 37  1  0  0  0  0
 42 40  1  0  0  0  0
M  RAD  4  10   2  17   2  24   2  27   2
M  END
$$$$
