2sa_1goa_5w.log
 OpenBabel02281910283D
Gaussian groups/kemi/kmacke/programs/G09D/g09/g09 # opt freq wb97xd/6-31++g(d,p)
 36 26  0  0  0  0  0  0  0  0999 V2000
    6.1143   -0.4867    0.9111 C   0  0  0  0  0  0  0  0  0  0  0  0
    7.0724   -0.6191    0.2016 O   0  0  0  0  0  0  0  0  0  0  0  0
    6.1508   -0.5504    2.0131 H   0  0  0  0  0  0  0  0  0  0  0  0
    4.7043   -0.2050    0.3746 C   0  0  0  0  0  0  0  0  0  0  0  0
    3.7965   -0.0511    1.1852 O   0  0  0  0  0  0  0  0  0  0  0  0
    4.6145   -0.1555   -0.9191 O   0  0  0  0  0  0  0  0  0  0  0  0
    3.6812    0.0352   -1.2127 H   0  0  0  0  0  0  0  0  0  0  0  0
    0.9618    0.0420   -0.7764 S   0  0  0  0  0  0  0  0  0  0  0  0
   -0.2749    0.7898   -1.1136 O   0  0  0  0  0  0  0  0  0  0  0  0
    2.1154    0.4222   -1.5970 O   0  0  0  0  0  0  0  0  0  0  0  0
    0.7415   -1.4148   -0.7090 O   0  0  0  0  0  0  0  0  0  0  0  0
    1.2711    0.5404    0.7219 O   0  0  0  0  0  0  0  0  0  0  0  0
   -0.3185   -2.1930    0.1573 H   0  0  0  0  0  0  0  0  0  0  0  0
    2.2197    0.3163    0.9515 H   0  0  0  0  0  0  0  0  0  0  0  0
   -3.4041   -0.2481    0.1892 S   0  0  0  0  0  0  0  0  0  0  0  0
   -2.3617   -0.4593    1.2599 O   0  0  0  0  0  0  0  0  0  0  0  0
   -4.4244   -1.2879    0.1735 O   0  0  0  0  0  0  0  0  0  0  0  0
   -2.6207   -0.4704   -1.1896 O   0  0  0  0  0  0  0  0  0  0  0  0
   -3.9049    1.1356    0.2200 O   0  0  0  0  0  0  0  0  0  0  0  0
   -1.7588    0.0203   -1.1929 H   0  0  0  0  0  0  0  0  0  0  0  0
   -3.0149    2.4222    0.4473 H   0  0  0  0  0  0  0  0  0  0  0  0
   -1.0476   -2.5661    0.7462 O   0  0  0  0  0  0  0  0  0  0  0  0
   -1.5586   -1.7482    1.0857 H   0  0  0  0  0  0  0  0  0  0  0  0
   -1.7400   -3.0831    0.1949 H   0  0  0  0  0  0  0  0  0  0  0  0
   -2.3192    3.1188    0.6646 O   0  0  0  0  0  0  0  0  0  0  0  0
   -1.7961    3.3350   -0.1749 H   0  0  0  0  0  0  0  0  0  0  0  0
   -1.6720    2.6365    1.3292 H   0  0  0  0  0  0  0  0  0  0  0  0
   -3.0199   -3.5983   -0.4807 O   0  0  0  0  0  0  0  0  0  0  0  0
   -2.9880   -3.6859   -1.4381 H   0  0  0  0  0  0  0  0  0  0  0  0
   -3.7018   -2.9188   -0.2933 H   0  0  0  0  0  0  0  0  0  0  0  0
   -0.7924    3.4290   -1.3609 O   0  0  0  0  0  0  0  0  0  0  0  0
   -0.9949    3.7924   -2.2264 H   0  0  0  0  0  0  0  0  0  0  0  0
   -0.4322    2.5276   -1.4805 H   0  0  0  0  0  0  0  0  0  0  0  0
   -0.9022    1.7084    2.1559 O   0  0  0  0  0  0  0  0  0  0  0  0
   -1.4214    0.8835    2.0791 H   0  0  0  0  0  0  0  0  0  0  0  0
   -0.0384    1.4837    1.7724 H   0  0  0  0  0  0  0  0  0  0  0  0
  1  3  1  0  0  0  0
  2  1  2  0  0  0  0
  4  1  1  0  0  0  0
  4  5  2  0  0  0  0
  6  4  1  0  0  0  0
  7  6  1  0  0  0  0
  8 11  1  0  0  0  0
  8 12  1  0  0  0  0
  9  8  2  0  0  0  0
 10  8  2  0  0  0  0
 12 14  1  0  0  0  0
 13 22  1  0  0  0  0
 15 19  2  0  0  0  0
 15 16  1  0  0  0  0
 17 15  2  0  0  0  0
 18 15  1  0  0  0  0
 20 18  1  0  0  0  0
 21 25  1  0  0  0  0
 22 23  1  0  0  0  0
 26 25  1  0  0  0  0
 28 30  1  0  0  0  0
 29 28  1  0  0  0  0
 32 31  1  0  0  0  0
 33 31  1  0  0  0  0
 35 34  1  0  0  0  0
 36 34  1  0  0  0  0
M  RAD  4  11   2  16   2  24   2  27   2
M  END
$$$$
