1msa_1mea.log
 OpenBabel11151907293D
Gaussian 09 #p opt freq wB97XD/6-31++G(d,p) iop(5/13=1) iop(1/11=1)
 20 18  0  0  0  0  0  0  0  0999 V2000
    1.5094    1.3737    0.3054 N   0  0  0  0  0  0  0  0  0  0  0  0
    2.6820    0.6508   -0.2552 C   0  0  0  0  0  0  0  0  0  0  0  0
    1.7160    2.3349    0.5660 H   0  0  0  0  0  0  0  0  0  0  0  0
    1.1403    0.8813    1.1331 H   0  0  0  0  0  0  0  0  0  0  0  0
    3.0033    1.1679   -1.1623 H   0  0  0  0  0  0  0  0  0  0  0  0
    3.4831    0.6798    0.4869 H   0  0  0  0  0  0  0  0  0  0  0  0
    2.2767   -0.7925   -0.5478 C   0  0  0  0  0  0  0  0  0  0  0  0
    1.5228   -0.8104   -1.3436 H   0  0  0  0  0  0  0  0  0  0  0  0
    3.1659   -1.3285   -0.9007 H   0  0  0  0  0  0  0  0  0  0  0  0
    1.7860   -1.3787    0.6296 O   0  0  0  0  0  0  0  0  0  0  0  0
    0.8452   -1.6073    0.4913 H   0  0  0  0  0  0  0  0  0  0  0  0
   -1.3007   -0.0221    0.0077 S   0  0  0  0  0  0  0  0  0  0  0  0
   -1.0340    0.5530    1.3457 O   0  0  0  0  0  0  0  0  0  0  0  0
   -0.8907   -1.4394   -0.1199 O   0  0  0  0  0  0  0  0  0  0  0  0
   -0.6801    0.8391   -1.0635 O   0  0  0  0  0  0  0  0  0  0  0  0
    0.6732    1.3414   -0.3660 H   0  0  0  0  0  0  0  0  0  0  0  0
   -3.0562    0.0347   -0.2803 C   0  0  0  0  0  0  0  0  0  0  0  0
   -3.5374   -0.5773    0.4828 H   0  0  0  0  0  0  0  0  0  0  0  0
   -3.3820    1.0722   -0.2075 H   0  0  0  0  0  0  0  0  0  0  0  0
   -3.2495   -0.3667   -1.2750 H   0  0  0  0  0  0  0  0  0  0  0  0
  1  3  1  0  0  0  0
  1  4  1  0  0  0  0
  2  1  1  0  0  0  0
  2  6  1  0  0  0  0
  5  2  1  0  0  0  0
  7  2  1  0  0  0  0
  7 10  1  0  0  0  0
  8  7  1  0  0  0  0
  9  7  1  0  0  0  0
 11 10  1  0  0  0  0
 12 13  1  0  0  0  0
 14 12  2  0  0  0  0
 15 12  2  0  0  0  0
 16  1  1  0  0  0  0
 17 19  1  0  0  0  0
 17 12  1  0  0  0  0
 17 18  1  0  0  0  0
 20 17  1  0  0  0  0
M  RAD  1  13   2
M  END
$$$$
