2msa_4mea.log
 OpenBabel11151907293D
Gaussian 09 #p opt freq wb97xd/6-31++g(d,p) iop(5/13=1,1/11=1)
 62 56  0  0  0  0  0  0  0  0999 V2000
    1.5990   -1.3715   -1.0615 N   0  0  0  0  0  0  0  0  0  0  0  0
    2.3827   -1.6989   -2.2735 C   0  0  0  0  0  0  0  0  0  0  0  0
    2.1023   -1.6641   -0.1771 H   0  0  0  0  0  0  0  0  0  0  0  0
    0.6726   -1.8383   -1.0802 H   0  0  0  0  0  0  0  0  0  0  0  0
    2.7016   -2.7408   -2.1902 H   0  0  0  0  0  0  0  0  0  0  0  0
    1.7273   -1.6044   -3.1441 H   0  0  0  0  0  0  0  0  0  0  0  0
    3.5926   -0.7819   -2.4156 C   0  0  0  0  0  0  0  0  0  0  0  0
    4.1372   -1.0764   -3.3191 H   0  0  0  0  0  0  0  0  0  0  0  0
    3.2486    0.2523   -2.5520 H   0  0  0  0  0  0  0  0  0  0  0  0
    4.4712   -0.8854   -1.3219 O   0  0  0  0  0  0  0  0  0  0  0  0
    4.2270   -0.2127   -0.6612 H   0  0  0  0  0  0  0  0  0  0  0  0
    2.4453    1.9164    0.2979 S   0  0  0  0  0  0  0  0  0  0  0  0
    3.5270    0.9381    0.5828 O   0  0  0  0  0  0  0  0  0  0  0  0
    1.6853    2.3162    1.5027 O   0  0  0  0  0  0  0  0  0  0  0  0
    1.5587    1.4553   -0.8134 O   0  0  0  0  0  0  0  0  0  0  0  0
    1.4501   -0.3505   -0.9786 H   0  0  0  0  0  0  0  0  0  0  0  0
    3.2536    3.3882   -0.3051 C   0  0  0  0  0  0  0  0  0  0  0  0
    3.8174    3.1271   -1.2012 H   0  0  0  0  0  0  0  0  0  0  0  0
    2.4884    4.1304   -0.5331 H   0  0  0  0  0  0  0  0  0  0  0  0
    3.9212    3.7497    0.4772 H   0  0  0  0  0  0  0  0  0  0  0  0
   -2.0845   -2.4145   -0.5694 S   0  0  0  0  0  0  0  0  0  0  0  0
   -0.8587   -2.6276   -1.3775 O   0  0  0  0  0  0  0  0  0  0  0  0
   -2.7511   -1.1208   -0.8852 O   0  0  0  0  0  0  0  0  0  0  0  0
   -1.8573   -2.5915    0.8903 O   0  0  0  0  0  0  0  0  0  0  0  0
   -3.4527   -0.0719    0.3010 H   0  0  0  0  0  0  0  0  0  0  0  0
   -3.2258   -3.6943   -1.0549 C   0  0  0  0  0  0  0  0  0  0  0  0
   -2.7660   -4.6589   -0.8400 H   0  0  0  0  0  0  0  0  0  0  0  0
   -4.1447   -3.5653   -0.4830 H   0  0  0  0  0  0  0  0  0  0  0  0
   -3.4167   -3.5850   -2.1225 H   0  0  0  0  0  0  0  0  0  0  0  0
   -0.9686    1.4152    1.2472 N   0  0  0  0  0  0  0  0  0  0  0  0
   -2.0126    1.5762    2.2799 C   0  0  0  0  0  0  0  0  0  0  0  0
   -0.1616    2.0420    1.3868 H   0  0  0  0  0  0  0  0  0  0  0  0
   -1.3160    1.5570    0.2423 H   0  0  0  0  0  0  0  0  0  0  0  0
   -1.5380    1.5154    3.2641 H   0  0  0  0  0  0  0  0  0  0  0  0
   -2.4566    2.5675    2.1622 H   0  0  0  0  0  0  0  0  0  0  0  0
   -3.0772    0.4926    2.1533 C   0  0  0  0  0  0  0  0  0  0  0  0
   -2.6198   -0.5011    2.2420 H   0  0  0  0  0  0  0  0  0  0  0  0
   -3.7891    0.6137    2.9767 H   0  0  0  0  0  0  0  0  0  0  0  0
   -3.7883    0.5945    0.9373 O   0  0  0  0  0  0  0  0  0  0  0  0
   -0.5537    0.4633    1.2968 H   0  0  0  0  0  0  0  0  0  0  0  0
    2.9831   -1.9627    1.3307 N   0  0  0  0  0  0  0  0  0  0  0  0
    2.1441   -2.2895    2.4826 C   0  0  0  0  0  0  0  0  0  0  0  0
    3.7442   -2.6235    1.2171 H   0  0  0  0  0  0  0  0  0  0  0  0
    3.3923   -1.0332    1.4294 H   0  0  0  0  0  0  0  0  0  0  0  0
    1.6662   -3.2595    2.3036 H   0  0  0  0  0  0  0  0  0  0  0  0
    2.7114   -2.3686    3.4225 H   0  0  0  0  0  0  0  0  0  0  0  0
    1.0720   -1.2254    2.6755 C   0  0  0  0  0  0  0  0  0  0  0  0
    0.4712   -1.4708    3.5612 H   0  0  0  0  0  0  0  0  0  0  0  0
    1.5439   -0.2499    2.8409 H   0  0  0  0  0  0  0  0  0  0  0  0
    0.2481   -1.0710    1.5335 O   0  0  0  0  0  0  0  0  0  0  0  0
   -0.4242   -1.7819    1.4472 H   0  0  0  0  0  0  0  0  0  0  0  0
   -1.4430    1.5748   -1.4616 N   0  0  0  0  0  0  0  0  0  0  0  0
   -2.1019    2.7089   -2.1076 C   0  0  0  0  0  0  0  0  0  0  0  0
   -0.4510    1.5443   -1.6857 H   0  0  0  0  0  0  0  0  0  0  0  0
   -1.8644    0.6823   -1.7179 H   0  0  0  0  0  0  0  0  0  0  0  0
   -1.5596    3.6186   -1.8280 H   0  0  0  0  0  0  0  0  0  0  0  0
   -2.0898    2.6369   -3.2064 H   0  0  0  0  0  0  0  0  0  0  0  0
   -3.5484    2.8438   -1.6459 C   0  0  0  0  0  0  0  0  0  0  0  0
   -4.0070    3.6877   -2.1740 H   0  0  0  0  0  0  0  0  0  0  0  0
   -4.1077    1.9382   -1.9261 H   0  0  0  0  0  0  0  0  0  0  0  0
   -3.6557    3.0873   -0.2618 O   0  0  0  0  0  0  0  0  0  0  0  0
   -3.7819    2.2312    0.1850 H   0  0  0  0  0  0  0  0  0  0  0  0
  1 16  1  0  0  0  0
  1  3  1  0  0  0  0
  2  5  1  0  0  0  0
  2  1  1  0  0  0  0
  4  1  1  0  0  0  0
  6  2  1  0  0  0  0
  7  2  1  0  0  0  0
  7 10  1  0  0  0  0
  8  7  1  0  0  0  0
  9  7  1  0  0  0  0
 10 11  1  0  0  0  0
 12 13  2  0  0  0  0
 12 14  1  0  0  0  0
 15 12  2  0  0  0  0
 17 12  1  0  0  0  0
 17 20  1  0  0  0  0
 18 17  1  0  0  0  0
 19 17  1  0  0  0  0
 21 24  1  0  0  0  0
 22 21  2  0  0  0  0
 23 21  2  0  0  0  0
 25 39  1  0  0  0  0
 26 27  1  0  0  0  0
 26 21  1  0  0  0  0
 26 28  1  0  0  0  0
 29 26  1  0  0  0  0
 30 40  1  0  0  0  0
 30 32  1  0  0  0  0
 30 31  1  0  0  0  0
 31 34  1  0  0  0  0
 33 30  1  0  0  0  0
 35 31  1  0  0  0  0
 36 37  1  0  0  0  0
 36 31  1  0  0  0  0
 36 38  1  0  0  0  0
 39 36  1  0  0  0  0
 41 44  1  0  0  0  0
 41 42  1  0  0  0  0
 42 47  1  0  0  0  0
 42 46  1  0  0  0  0
 43 41  1  0  0  0  0
 45 42  1  0  0  0  0
 47 49  1  0  0  0  0
 47 48  1  0  0  0  0
 50 47  1  0  0  0  0
 51 50  1  0  0  0  0
 53 56  1  0  0  0  0
 53 58  1  0  0  0  0
 53 52  1  0  0  0  0
 54 52  1  0  0  0  0
 55 52  1  0  0  0  0
 57 53  1  0  0  0  0
 58 61  1  0  0  0  0
 59 58  1  0  0  0  0
 60 58  1  0  0  0  0
 61 62  1  0  0  0  0
M  RAD  2  14   2  24   2
M  END
$$$$
