3msa_2mea.log
 OpenBabel11151907293D
Gaussian 09 #p opt freq wB97XD/6-31++G(d,p) iop(5/13=1) iop(1/11=1)
 49 44  0  0  0  0  0  0  0  0999 V2000
   -0.0141    1.8804    1.2124 N   0  0  0  0  0  0  0  0  0  0  0  0
    0.1767    3.3511    1.1607 C   0  0  0  0  0  0  0  0  0  0  0  0
   -0.5986    1.5691    1.9984 H   0  0  0  0  0  0  0  0  0  0  0  0
    0.8973    1.3808    1.2906 H   0  0  0  0  0  0  0  0  0  0  0  0
   -0.7611    3.7869    0.8109 H   0  0  0  0  0  0  0  0  0  0  0  0
    0.3900    3.7089    2.1713 H   0  0  0  0  0  0  0  0  0  0  0  0
    1.3267    3.7048    0.2204 C   0  0  0  0  0  0  0  0  0  0  0  0
    1.3869    4.7962    0.1565 H   0  0  0  0  0  0  0  0  0  0  0  0
    2.2674    3.3391    0.6526 H   0  0  0  0  0  0  0  0  0  0  0  0
    1.1246    3.2011   -1.0752 O   0  0  0  0  0  0  0  0  0  0  0  0
    1.5336    2.3208   -1.1446 H   0  0  0  0  0  0  0  0  0  0  0  0
    3.0724    0.1965    0.1620 S   0  0  0  0  0  0  0  0  0  0  0  0
    3.2468   -1.2642    0.2454 O   0  0  0  0  0  0  0  0  0  0  0  0
    2.5524    0.8301    1.3983 O   0  0  0  0  0  0  0  0  0  0  0  0
    2.2624    0.6087   -1.0365 O   0  0  0  0  0  0  0  0  0  0  0  0
   -0.5233    1.5604    0.3717 H   0  0  0  0  0  0  0  0  0  0  0  0
    4.6947    0.8880   -0.1016 C   0  0  0  0  0  0  0  0  0  0  0  0
    5.1107    0.4475   -1.0078 H   0  0  0  0  0  0  0  0  0  0  0  0
    4.5948    1.9683   -0.2100 H   0  0  0  0  0  0  0  0  0  0  0  0
    5.3089    0.6404    0.7644 H   0  0  0  0  0  0  0  0  0  0  0  0
   -2.9444    0.5303   -1.2543 S   0  0  0  0  0  0  0  0  0  0  0  0
   -2.1699   -0.0934   -2.3550 O   0  0  0  0  0  0  0  0  0  0  0  0
   -2.1604    1.4944   -0.4540 O   0  0  0  0  0  0  0  0  0  0  0  0
   -3.6410   -0.4864   -0.4018 O   0  0  0  0  0  0  0  0  0  0  0  0
    0.0847   -1.5937   -0.8074 H   0  0  0  0  0  0  0  0  0  0  0  0
   -4.2607    1.4400   -2.0323 C   0  0  0  0  0  0  0  0  0  0  0  0
   -3.8086    2.1917   -2.6794 H   0  0  0  0  0  0  0  0  0  0  0  0
   -4.8612    0.7390   -2.6117 H   0  0  0  0  0  0  0  0  0  0  0  0
   -4.8572    1.9079   -1.2492 H   0  0  0  0  0  0  0  0  0  0  0  0
    0.2534   -1.2048   -1.7438 N   0  0  0  0  0  0  0  0  0  0  0  0
    0.6812   -2.2716   -2.6753 C   0  0  0  0  0  0  0  0  0  0  0  0
   -0.6384   -0.7456   -2.0351 H   0  0  0  0  0  0  0  0  0  0  0  0
    0.9905   -0.4844   -1.6095 H   0  0  0  0  0  0  0  0  0  0  0  0
   -0.1301   -3.0004   -2.7324 H   0  0  0  0  0  0  0  0  0  0  0  0
    0.8325   -1.8305   -3.6633 H   0  0  0  0  0  0  0  0  0  0  0  0
    1.9577   -2.9208   -2.1498 C   0  0  0  0  0  0  0  0  0  0  0  0
    2.1991   -3.7831   -2.7813 H   0  0  0  0  0  0  0  0  0  0  0  0
    2.7879   -2.2064   -2.2136 H   0  0  0  0  0  0  0  0  0  0  0  0
    1.7708   -3.3475   -0.8220 O   0  0  0  0  0  0  0  0  0  0  0  0
    2.2611   -2.7334   -0.2484 H   0  0  0  0  0  0  0  0  0  0  0  0
   -1.3550   -1.1316    2.1084 S   0  0  0  0  0  0  0  0  0  0  0  0
   -1.4118    0.0560    2.9629 O   0  0  0  0  0  0  0  0  0  0  0  0
   -0.4604   -1.0230    0.9511 O   0  0  0  0  0  0  0  0  0  0  0  0
   -2.7741   -1.5760    1.6541 O   0  0  0  0  0  0  0  0  0  0  0  0
   -3.1062   -1.0800    0.7880 H   0  0  0  0  0  0  0  0  0  0  0  0
   -0.8744   -2.5253    3.0915 C   0  0  0  0  0  0  0  0  0  0  0  0
    0.1179   -2.3045    3.4861 H   0  0  0  0  0  0  0  0  0  0  0  0
   -1.5990   -2.6417    3.8972 H   0  0  0  0  0  0  0  0  0  0  0  0
   -0.8498   -3.4046    2.4483 H   0  0  0  0  0  0  0  0  0  0  0  0
  1  4  1  0  0  0  0
  1  3  1  0  0  0  0
  2  1  1  0  0  0  0
  2  6  1  0  0  0  0
  5  2  1  0  0  0  0
  7  9  1  0  0  0  0
  7  2  1  0  0  0  0
  8  7  1  0  0  0  0
 10  7  1  0  0  0  0
 11 10  1  0  0  0  0
 12 13  2  0  0  0  0
 12 14  1  0  0  0  0
 15 12  2  0  0  0  0
 16  1  1  0  0  0  0
 17 12  1  0  0  0  0
 17 20  1  0  0  0  0
 18 17  1  0  0  0  0
 19 17  1  0  0  0  0
 21 23  2  0  0  0  0
 21 24  1  0  0  0  0
 22 21  2  0  0  0  0
 26 21  1  0  0  0  0
 26 29  1  0  0  0  0
 27 26  1  0  0  0  0
 28 26  1  0  0  0  0
 30 33  1  0  0  0  0
 30 25  1  0  0  0  0
 31 36  1  0  0  0  0
 31 30  1  0  0  0  0
 32 30  1  0  0  0  0
 34 31  1  0  0  0  0
 35 31  1  0  0  0  0
 36 39  1  0  0  0  0
 37 36  1  0  0  0  0
 38 36  1  0  0  0  0
 39 40  1  0  0  0  0
 41 42  2  0  0  0  0
 41 46  1  0  0  0  0
 43 41  2  0  0  0  0
 44 41  1  0  0  0  0
 45 44  1  0  0  0  0
 46 47  1  0  0  0  0
 46 48  1  0  0  0  0
 49 46  1  0  0  0  0
M  RAD  2  14   2  24   2
M  END
$$$$
