4msa_2mea.log
 OpenBabel11151907293D
Gaussian 09 #p opt freq wB97XD/6-31++G(d,p) iop(5/13=1) iop(1/11=1)
 58 52  0  0  0  0  0  0  0  0999 V2000
    0.2531   -0.6347    1.9782 N   0  0  0  0  0  0  0  0  0  0  0  0
    0.7084   -0.0749    3.2756 C   0  0  0  0  0  0  0  0  0  0  0  0
    0.9760   -1.2497    1.5514 H   0  0  0  0  0  0  0  0  0  0  0  0
    0.0860    0.1262    1.3049 H   0  0  0  0  0  0  0  0  0  0  0  0
    0.7520   -0.8988    3.9908 H   0  0  0  0  0  0  0  0  0  0  0  0
    1.7091    0.3368    3.1269 H   0  0  0  0  0  0  0  0  0  0  0  0
   -0.2500    1.0131    3.7435 C   0  0  0  0  0  0  0  0  0  0  0  0
    0.0614    1.3409    4.7399 H   0  0  0  0  0  0  0  0  0  0  0  0
   -0.1780    1.8716    3.0660 H   0  0  0  0  0  0  0  0  0  0  0  0
   -1.5746    0.5335    3.8296 O   0  0  0  0  0  0  0  0  0  0  0  0
   -2.0059    0.7178    2.9832 H   0  0  0  0  0  0  0  0  0  0  0  0
   -2.4939    1.6887   -0.1366 S   0  0  0  0  0  0  0  0  0  0  0  0
   -1.6886    2.7143   -0.8258 O   0  0  0  0  0  0  0  0  0  0  0  0
   -1.8934    1.1344    1.0917 O   0  0  0  0  0  0  0  0  0  0  0  0
   -2.8837    0.5937   -1.0987 O   0  0  0  0  0  0  0  0  0  0  0  0
   -0.6224   -1.1655    2.0603 H   0  0  0  0  0  0  0  0  0  0  0  0
   -4.0175    2.4759    0.3483 C   0  0  0  0  0  0  0  0  0  0  0  0
   -4.4923    2.8773   -0.5469 H   0  0  0  0  0  0  0  0  0  0  0  0
   -4.6531    1.7292    0.8254 H   0  0  0  0  0  0  0  0  0  0  0  0
   -3.7724    3.2758    1.0475 H   0  0  0  0  0  0  0  0  0  0  0  0
    3.3413   -1.6855   -0.0698 S   0  0  0  0  0  0  0  0  0  0  0  0
    3.0303   -1.6018   -1.5187 O   0  0  0  0  0  0  0  0  0  0  0  0
    2.1950   -2.1669    0.7390 O   0  0  0  0  0  0  0  0  0  0  0  0
    3.9357   -0.4257    0.4692 O   0  0  0  0  0  0  0  0  0  0  0  0
    0.6090    0.1890   -1.5884 H   0  0  0  0  0  0  0  0  0  0  0  0
    4.6209   -2.9118    0.1023 C   0  0  0  0  0  0  0  0  0  0  0  0
    5.4848   -2.5842   -0.4758 H   0  0  0  0  0  0  0  0  0  0  0  0
    4.8703   -2.9943    1.1601 H   0  0  0  0  0  0  0  0  0  0  0  0
    4.2329   -3.8562   -0.2796 H   0  0  0  0  0  0  0  0  0  0  0  0
    0.5063   -0.6908   -2.1219 N   0  0  0  0  0  0  0  0  0  0  0  0
    0.2352   -0.3923   -3.5479 C   0  0  0  0  0  0  0  0  0  0  0  0
    1.4086   -1.1913   -1.9720 H   0  0  0  0  0  0  0  0  0  0  0  0
   -0.2506   -1.2427   -1.6908 H   0  0  0  0  0  0  0  0  0  0  0  0
    1.1838   -0.1085   -4.0086 H   0  0  0  0  0  0  0  0  0  0  0  0
   -0.1409   -1.2974   -4.0298 H   0  0  0  0  0  0  0  0  0  0  0  0
   -0.7598    0.7551   -3.6503 C   0  0  0  0  0  0  0  0  0  0  0  0
   -0.9481    0.9586   -4.7115 H   0  0  0  0  0  0  0  0  0  0  0  0
   -1.7075    0.4774   -3.1744 H   0  0  0  0  0  0  0  0  0  0  0  0
   -0.2008    1.8917   -3.0290 O   0  0  0  0  0  0  0  0  0  0  0  0
   -0.7881    2.2058   -2.3167 H   0  0  0  0  0  0  0  0  0  0  0  0
    1.8903    2.2438    0.2352 S   0  0  0  0  0  0  0  0  0  0  0  0
    1.8954    2.6568    1.6293 O   0  0  0  0  0  0  0  0  0  0  0  0
    1.0224    1.0937   -0.0787 O   0  0  0  0  0  0  0  0  0  0  0  0
    3.3363    1.9255   -0.2853 O   0  0  0  0  0  0  0  0  0  0  0  0
    3.6069    0.9722   -0.0147 H   0  0  0  0  0  0  0  0  0  0  0  0
    1.4499    3.5999   -0.8099 C   0  0  0  0  0  0  0  0  0  0  0  0
    0.4208    3.8554   -0.5510 H   0  0  0  0  0  0  0  0  0  0  0  0
    2.1374    4.4206   -0.6069 H   0  0  0  0  0  0  0  0  0  0  0  0
    1.5028    3.2629   -1.8457 H   0  0  0  0  0  0  0  0  0  0  0  0
   -2.4322   -2.5778    0.0012 S   0  0  0  0  0  0  0  0  0  0  0  0
   -1.9331   -2.4175    1.3634 O   0  0  0  0  0  0  0  0  0  0  0  0
   -1.4453   -2.4783   -1.0803 O   0  0  0  0  0  0  0  0  0  0  0  0
   -3.6294   -1.6191   -0.2811 O   0  0  0  0  0  0  0  0  0  0  0  0
   -3.3102   -0.6679   -0.6032 H   0  0  0  0  0  0  0  0  0  0  0  0
   -3.2433   -4.1505   -0.1143 C   0  0  0  0  0  0  0  0  0  0  0  0
   -2.4856   -4.9110    0.0765 H   0  0  0  0  0  0  0  0  0  0  0  0
   -4.0244   -4.1848    0.6447 H   0  0  0  0  0  0  0  0  0  0  0  0
   -3.6589   -4.2535   -1.1159 H   0  0  0  0  0  0  0  0  0  0  0  0
  1 16  1  0  0  0  0
  1  2  1  0  0  0  0
  2  7  1  0  0  0  0
  2  5  1  0  0  0  0
  3  1  1  0  0  0  0
  4  1  1  0  0  0  0
  6  2  1  0  0  0  0
  7 10  1  0  0  0  0
  7  8  1  0  0  0  0
  9  7  1  0  0  0  0
 11 10  1  0  0  0  0
 12 17  1  0  0  0  0
 12 14  1  0  0  0  0
 13 12  2  0  0  0  0
 15 12  2  0  0  0  0
 17 19  1  0  0  0  0
 17 20  1  0  0  0  0
 18 17  1  0  0  0  0
 21 26  1  0  0  0  0
 21 24  2  0  0  0  0
 21 23  1  0  0  0  0
 22 21  2  0  0  0  0
 26 28  1  0  0  0  0
 27 26  1  0  0  0  0
 29 26  1  0  0  0  0
 30 32  1  0  0  0  0
 30 33  1  0  0  0  0
 30 25  1  0  0  0  0
 31 30  1  0  0  0  0
 34 31  1  0  0  0  0
 35 31  1  0  0  0  0
 36 31  1  0  0  0  0
 36 38  1  0  0  0  0
 36 39  1  0  0  0  0
 37 36  1  0  0  0  0
 39 40  1  0  0  0  0
 41 42  2  0  0  0  0
 43 41  2  0  0  0  0
 44 45  1  0  0  0  0
 44 41  1  0  0  0  0
 46 48  1  0  0  0  0
 46 47  1  0  0  0  0
 46 41  1  0  0  0  0
 49 46  1  0  0  0  0
 50 51  2  0  0  0  0
 52 50  2  0  0  0  0
 53 50  1  0  0  0  0
 54 53  1  0  0  0  0
 55 50  1  0  0  0  0
 55 56  1  0  0  0  0
 55 57  1  0  0  0  0
 58 55  1  0  0  0  0
M  RAD  2  14   2  23   2
M  END
$$$$
