23
1msa2ma-01
S        1.29245000      -0.07412600      -0.00848600
O        1.02770100      -1.31092300      -0.77558200
O        0.55336800      -0.00268300       1.27301800
O        1.07177000       1.16543800      -0.83056200
H       -0.52447200       1.44806600      -0.83087100
C        3.03413300      -0.07146200       0.37899300
H        3.24449000      -0.95553500       0.98127700
H        3.59018900      -0.10272200      -0.55809400
H        3.26034500       0.83893600       0.93402300
N       -1.93547400      -1.30912400      -0.69092300
H       -2.52083700      -1.79382300      -1.36404200
C       -2.23320000      -1.75946000       0.67726600
H       -2.16349100      -2.84706600       0.79538700
H       -1.50754500      -1.29651500       1.35035300
H       -3.24129800      -1.44258000       0.96214400
H       -0.95832100      -1.53804900      -0.90611200
N       -1.57868400       1.42400000      -0.68341100
H       -2.04151200       1.93905800      -1.42791400
C       -1.91141900       1.95159900       0.65868500
H       -2.97121500       1.79419300       0.86445000
H       -1.29473800       1.40751000       1.37572900
H       -1.67553000       3.01515700       0.70802200
H       -1.83594700       0.37653600      -0.75288900
23
1msa2ma-02
S        1.27738000      -0.15362400      -0.02694800
O        1.18847100      -1.53945500      -0.50593100
O        0.49985900       0.10553300       1.21586500
O        0.92732900       0.85943000      -1.08461100
H       -0.62856000       1.18172700      -0.97890000
C        2.99032600       0.16608300       0.36171000
H        3.29813600      -0.54669900       1.12712600
H        3.57365900       0.02685100      -0.54863300
H        3.08045100       1.18899400       0.72721400
N       -2.17814800      -1.01727300       0.59453900
H       -1.30650800      -0.92706400       1.12464700
C       -2.10456200      -2.19685900      -0.28147400
H       -2.09986800      -3.14237600       0.27284600
H       -2.95485700      -2.20024800      -0.96999000
H       -1.17604100      -2.14349600      -0.85458000
H       -2.93799200      -1.11014100       1.26098300
N       -1.63680400       1.36576200      -0.67746400
H       -2.20076500       1.62570100      -1.48221700
C       -1.63039800       2.40857600       0.37078600
H       -2.63807400       2.55192500       0.76390800
H       -0.96048000       2.05922500       1.15774900
H       -1.25229800       3.34437600      -0.04179700
H       -1.98768200       0.43892400      -0.25543200
23
1msa2ma-03
S       -1.34477400      -0.06322900      -0.03186800
O       -0.93647400      -1.19354900      -0.92232600
O       -1.22442900       1.25704700      -0.68400000
O       -0.63398900      -0.13516300       1.27831200
C       -3.07721600      -0.31112200       0.31508600
H       -3.19742100      -1.28452300       0.79057000
H       -3.40525900       0.48745500       0.98081100
H       -3.61893500      -0.27215000      -0.63009800
N        1.60057200      -1.16074600       0.04131600
H        1.13163300      -1.01238300       0.94649300
H        0.80191500      -1.47274700      -0.55251200
C        2.75035100      -2.07510400       0.07895600
H        3.16799800      -2.17143700      -0.92364900
H        3.51303700      -1.67686700       0.74922000
H        2.43395200      -3.05680100       0.43311600
H        1.82746900      -0.16792600      -0.30846800
N        1.74244300       1.49395500      -0.68381700
H        2.34097600       1.89905100      -1.39629300
C        1.84460800       2.24447600       0.57610400
H        1.64613100       3.31554600       0.45599100
H        1.10862000       1.83787700       1.27453700
H        2.84451500       2.12104000       1.00384100
H        0.77333200       1.55686800      -1.01292600
