52
3sa1ma2eda-301002_15_18
S        0.01174200      -1.71633100      -1.35314400
O        0.30300500      -0.27624100      -1.07029800
O       -0.18072000      -2.46040100      -0.08690100
O       -1.11064900      -1.89553400      -2.28753800
O        1.27941900      -2.28687500      -2.09793400
H        2.08201100      -2.13704900      -1.52923100
S       -1.71030400       1.38777700       1.05825600
O       -0.28942200       1.58704600       1.47846600
O       -2.16893400       0.03065900       1.46053600
O       -2.60967600       2.47785600       1.37856400
O       -1.66825500       1.36300100      -0.56232200
H       -0.96213000       0.71411600      -0.84947700
S        3.88860800      -0.69764900       0.22294200
O        3.94605200       0.49648400      -0.64701300
O        3.36676000      -0.37018200       1.56819300
O        3.27723700      -1.88727300      -0.37744500
O        5.42536900      -1.16454800       0.43077900
H        5.92521500      -0.41314300       0.77713800
C        0.26147300      -1.52395000       3.38092700
N        0.71705700      -0.99285500       2.08246200
H        0.33580500      -0.04446800       1.91768400
H        1.74833200      -0.91404300       2.00786300
H       -0.82820300      -1.51288600       3.39455700
H        0.62989000      -2.54236400       3.50302600
H        0.64514100      -0.89437700       4.18373300
H        0.38738800      -1.58650800       1.29247500
C       -5.31803400      -0.39544800       0.00650400
N       -5.83646400      -1.69520700       0.43784100
C       -4.25680600      -0.61609200      -1.06535800
N       -3.23724700      -1.55030500      -0.52780300
H       -6.58612500      -2.02022600      -0.16298900
H       -6.19553900      -1.65997200       1.38385100
H       -6.08399800       0.28450000      -0.38650200
H       -4.84949500       0.09811600       0.86312000
H       -3.75079700       0.31340300      -1.32999200
H       -4.68195400      -1.06658100      -1.96626500
H       -2.72954300      -1.07892600       0.25430900
H       -2.53534200      -1.82975400      -1.24523600
H       -3.72220000      -2.36537700      -0.14140400
C        0.47142800       4.16074000      -0.73549200
N       -0.08104200       3.59541200      -1.96364400
C        1.83707600       3.52587400      -0.45657200
N        1.67919000       2.05744000      -0.52793500
H       -0.08951600       4.24823600      -2.73522900
H       -1.01225200       3.22232100      -1.82206000
H        0.59161200       5.24831400      -0.78397400
H       -0.19518800       3.94617200       0.10524700
H        2.21615900       3.79036900       0.53238600
H        2.57079500       3.81643500      -1.21229300
H        1.06924700       1.72886000       0.23979400
H        2.57353800       1.52021300      -0.52239100
H        1.18364900       1.83377600      -1.40020800
52
3sa1ma2eda-301002_162_14
S        2.56631500      -1.62898500       0.27773800
O        1.91647700      -3.07902000       0.43024800
O        2.39922000      -0.91539900       1.57184300
O        1.74808100      -0.92085500      -0.76847400
O        3.94902000      -1.85838000      -0.10390700
H        0.50241000      -1.67393400      -1.62259000
H        0.93101000      -3.01154600       0.45352900
S       -0.66647500       2.69259500       0.25128900
O       -0.04534100       1.59737000      -0.77527000
O       -1.20723500       1.89609500       1.38276900
O        0.50960600       3.50834400       0.57849500
O       -1.73744700       3.39282700      -0.47813100
H       -3.06551300       2.23475200      -0.86104900
S       -1.40993900      -1.97938500      -0.74632900
O       -0.78263400      -2.61852300       0.44539700
O       -0.35966500      -2.07109000      -1.93019500
O       -2.63478100      -2.59348600      -1.22261000
O       -1.57684900      -0.51358000      -0.44821600
H       -0.52313500       0.73383100      -0.69345300
C       -0.43484100      -0.64036900       3.74412600
N       -0.20940800      -0.51178100       2.29106200
H       -0.58450900       0.38751600       1.92087800
H        0.80911500      -0.56897800       2.05991100
H       -1.50518600      -0.62350900       3.94917600
H       -0.00537000      -1.57922600       4.09321700
H        0.04589800       0.19454300       4.25305400
H       -0.63968600      -1.28180100       1.75489600
C       -4.42532000       1.09984200       0.29977700
C       -4.87434900      -0.36617200       0.30032000
N       -5.24729100      -0.77760900      -1.05240200
N       -3.54471700       1.31115400      -0.87688700
H       -4.09056200       1.15000100      -1.72568900
H       -2.80033800       0.58107400      -0.85775600
H       -3.84654600       1.35812000       1.18866500
H       -5.27150400       1.78463700       0.20640700
H       -5.69770500      -0.47746500       1.01310300
H       -4.04786400      -0.98625500       0.66002800
H       -6.21947000      -1.04484100      -1.12665400
H       -4.67030000      -1.55513700      -1.36243900
C        3.40062500       2.18434200      -1.32198500
N        2.65971000       1.78549000      -0.10132500
C        4.47702200       1.12315000      -1.57321000
N        5.20672000       0.87923800      -0.33191200
H        2.01521200       2.52031200       0.24402800
H        3.36697400       1.52274200       0.60021300
H        2.68845700       2.26510600      -2.14462900
H        3.84460600       3.16427000      -1.13103000
H        5.11957700       1.46012200      -2.39371500
H        3.99240000       0.19607000      -1.89355900
H        6.14253100       1.26164500      -0.33846700
H        5.24155000      -0.11271500      -0.11494000
H        2.08798900       0.94845000      -0.30381400
52
3sa1ma2eda-301002_15_7
S       -0.15023900      -2.05149500      -0.81690200
O        0.15366500      -0.59867800      -1.06217100
O       -0.30562400      -2.30042100       0.63089400
O       -1.29482300      -2.50796300      -1.61549000
O        1.08993100      -2.86232400      -1.34999200
H        1.90327900      -2.63002100      -0.81716500
S       -1.88992100       1.69919600       0.41298800
O       -0.49646100       2.10895900       0.74221700
O       -2.26449700       0.50042300       1.21881900
O       -2.87453300       2.76255200       0.39025700
O       -1.82710200       1.17287100      -1.12001100
H       -1.12770600       0.46992700      -1.17967300
S        3.85814700      -0.90023000       0.24574600
O        3.17186900      -2.20515100       0.14337900
O        4.14874300      -0.28364800      -1.05919200
O        3.23045600       0.03405300       1.19903800
O        5.28028500      -1.22184900       0.95032000
H        5.71212700      -1.92660100       0.44814400
C        0.22671200      -0.10856100       3.51834600
N        0.60183200      -0.11445900       2.09108200
H        0.23009500       0.72953100       1.61397700
H        1.62517700      -0.14078900       1.93614500
H       -0.85874800      -0.03991400       3.58619400
H        0.57712300      -1.02793700       3.98711100
H        0.68262500       0.75207600       4.00755600
H        0.20175700      -0.93822700       1.59803400
C       -5.47867200      -0.15573700      -0.15452800
N       -6.08190500      -1.18288400       0.69796200
C       -4.41412900      -0.80235900      -1.03329400
N       -3.46425400      -1.53028400      -0.15482600
H       -6.84706400      -1.65756100       0.23133900
H       -6.44440200      -0.78964700       1.55766500
H       -6.19578600       0.37089700      -0.79606100
H       -4.99940300       0.59492300       0.48097900
H       -3.84799300      -0.05666600      -1.59292500
H       -4.85002200      -1.52573300      -1.72769300
H       -2.94852700      -0.83505200       0.43781300
H       -2.75915400      -2.06911100      -0.69555000
H       -4.00681400      -2.13415900       0.46923900
C        1.87642800       3.90070200      -1.38004900
N        1.77073400       3.93058000       0.07253700
C        1.38743100       2.53949900      -1.87666700
N        1.97686200       1.47595000      -1.02715000
H        0.80356000       3.87945100       0.38533500
H        2.21426000       4.74756900       0.47141100
H        1.29693200       4.67565800      -1.90044500
H        2.92955000       4.03965700      -1.64873400
H        1.65726500       2.36102800      -2.91827400
H        0.30362400       2.46466400      -1.77289600
H        2.90948700       1.13908000      -1.31210900
H        1.37047500       0.63684400      -0.98604400
H        2.07572800       1.86639000      -0.07728400
