59
4sa1ma2eda-11
S        4.02653300       0.03801600      -0.42909800
O        4.14827300       0.87781700       0.77866700
O        3.44688500      -1.29288600      -0.15246200
O        3.39250700       0.72687800      -1.56267700
O        5.52875600      -0.23777000      -0.96128600
H        5.98928900      -0.79106500      -0.31524700
S       -0.73522700       2.26438900      -1.08635500
O       -1.22391600       1.72922100      -2.36601600
O       -0.21304900       1.13509200      -0.23427200
O        0.23000200       3.36431200      -1.15688200
O       -1.97556300       2.86001600      -0.28604800
H       -2.74997500       2.24223300      -0.38870900
S        0.50993300      -3.00545300       0.55732100
O        0.96878200      -3.28385100      -0.82326700
O       -0.19238800      -1.66291500       0.55111400
O       -0.23017400      -4.04086600       1.24055400
O        1.82486200      -2.75151000       1.44320300
H        2.48129700      -2.23933400       0.91501800
S       -4.38420000      -0.03926200       0.20720500
O       -4.13514300      -1.42553900      -0.22300200
O       -4.12520300       0.19348500       1.64198600
O       -3.73764400       0.94548000      -0.68357000
O       -5.95619900       0.25760200      -0.01644700
H       -6.46420200      -0.33043800       0.55980500
N        2.14120000       2.84182300       0.82280500
H        1.55499700       3.01071400      -0.01698400
H        3.02719900       2.39008800       0.55098500
C        2.36080500       4.09191200       1.57599300
H        1.39453500       4.51585600       1.84887800
H        2.94037600       3.87433400       2.47332300
H        2.90228400       4.80149000       0.95115900
C        0.20117000      -0.93218700      -3.17145300
C       -1.05633100      -1.71408000      -2.80538600
N       -1.78795100      -1.06184200      -1.69026700
N        1.10142200      -0.77296600      -2.00325200
H        0.66645200      -0.18187200      -1.26922900
H        1.99013900      -0.29064500      -2.22072300
H        0.74268100      -1.48026500      -3.94414600
H       -0.05034600       0.06505400      -3.53573100
H       -0.80783500      -2.72905600      -2.48844000
H       -1.71415600      -1.75253500      -3.67492300
H       -1.25204700      -1.18172600      -0.80298500
H       -2.71966600      -1.46288000      -1.48846100
H        1.31316700      -1.69970600      -1.57229500
H       -1.92155300      -0.05050600      -1.86677600
C        0.69419200      -0.04120000       3.40896500
C       -0.73244400       0.49283300       3.38064000
N       -1.39689100       0.15192500       2.09795900
N        1.47326600       0.46515700       2.27660800
H        2.46025100       0.25144800       2.40632700
H        1.67100200       2.11160500       1.41075100
H        1.15594600       0.29767900       4.34053300
H        0.67490800      -1.13957400       3.42954700
H       -0.75100800       1.58054700       3.48097400
H       -1.31706400       0.05344200       4.19136500
H       -1.01846600       0.71864600       1.31365100
H       -2.43103800       0.25984900       2.10643600
H        1.20600600      -0.05914200       1.44191200
H       -1.17377100      -0.81613700       1.80250600
59
4sa1ma2eda-46
S        3.95422500       1.28568600      -0.42019700
O        3.31864100       2.58730300      -0.12292700
O        4.32144400       0.52323000       0.78627900
O        3.23080500       0.51089000      -1.44331100
O        5.35304000       1.62736500      -1.16344800
H        5.94469900       2.03577400      -0.51650700
S        1.74454700      -1.21907800       2.26381600
O        2.47632100      -2.39890600       1.77758000
O        1.14119400      -0.46285200       1.11999700
O        0.73652800      -1.48109100       3.30156100
O        2.79049500      -0.21799100       2.93139800
H        3.42845600       0.06450800       2.22945300
S       -1.41009900      -1.65788200      -2.07741700
O       -0.62940900      -2.22726500      -0.93094800
O       -0.53889800      -0.83117200      -2.95311400
O       -2.25564600      -2.63637000      -2.73983600
O       -2.34924600      -0.53747800      -1.41430100
H       -3.07941000      -0.94592900      -0.81237200
S       -2.99774200       2.29867600       0.72276600
O       -3.03935800       0.98382100       1.40163600
O       -1.80555000       3.08680300       1.09415200
O       -3.26638500       2.24175600      -0.71838500
O       -4.26979500       3.12697300       1.28713800
H       -4.09408200       3.35791900       2.20981000
C        2.62129800      -2.98171100      -2.05141400
N        2.17963200      -2.04936500      -0.99651500
H        1.14540600      -1.98035900      -0.97564300
H        2.45856300      -2.34149200      -0.04200700
H        2.26363100      -2.61749900      -3.01419300
H        3.70982400      -3.03322200      -2.05520900
H        2.20185600      -3.96825900      -1.85564100
H        2.56980500      -1.09990700      -1.13952600
C       -2.63574200      -2.26984700       2.06779600
N       -1.54745600      -1.37579500       1.60164500
C       -3.55526000      -2.72679200       0.94439800
N       -4.12398900      -1.59596900       0.19710200
H       -0.79119200      -1.31728200       2.31274500
H       -1.91826800      -0.42445700       1.43092600
H       -2.17381200      -3.14256400       2.53304600
H       -3.19128700      -1.72650000       2.83691400
H       -4.32951300      -3.35526100       1.40130300
H       -2.99694500      -3.34797100       0.23641300
H       -4.45383900      -0.85115500       0.80878900
H       -4.90166400      -1.90604500      -0.37730400
H       -1.11114700      -1.71203200       0.71782700
C        0.16751500       1.41762700      -0.77739600
N        0.69815100       2.05484500       0.44582000
C       -0.27724600       2.43497800      -1.82059800
N       -1.32075300       1.78139200      -2.65974300
H        0.92656700       1.25187100       1.06951500
H       -0.03248400       2.64083300       0.87736700
H        0.94382900       0.76604800      -1.17477100
H       -0.67802100       0.79796600      -0.47589100
H        0.55304100       2.74278700      -2.45841800
H       -0.73657200       3.31054000      -1.35611100
H       -1.02338000       0.81192900      -2.94361700
H       -1.54646800       2.33398800      -3.48383400
H       -2.17646000       1.68375000      -2.07597200
H        1.59803200       2.54217400       0.26678600
59
4sa1ma2eda-23
S        1.72831500       3.01907500      -1.12712200
O        0.56352500       2.81261700      -0.17982800
O        1.67303200       1.97139800      -2.17558200
O        1.86247400       4.37695700      -1.60189300
O        3.02110700       2.75103300      -0.21859000
H        3.00058800       1.85312800       0.20177900
S       -4.10736500       0.21544400       0.61154800
O       -3.63745300      -0.34960400       1.88816400
O       -3.57402000       1.57958000       0.37441900
O       -3.96565000      -0.64926000      -0.56679400
O       -5.71280100       0.36207100       0.74796500
H       -5.90842500       0.77955300       1.59766900
S       -1.04391400      -2.37324600      -1.12256200
O       -1.14812700      -2.74253000       0.29982000
O       -0.61928500      -0.94228300      -1.27435500
O       -0.17283700      -3.26677800      -1.90654000
O       -2.47306600      -2.49532400      -1.78168200
H       -3.09997300      -1.90369500      -1.28789900
S        2.62761600      -0.72774900       1.89392100
O        1.96220400      -0.00873600       3.03957900
O        3.85851000      -1.42687700       2.24403900
O        1.58220400      -1.69216200       1.33880000
O        2.85946700       0.29242200       0.77925500
C       -1.68266000       2.23245700      -2.95620600
N       -1.57436400       1.66703800      -1.59295400
H       -0.80772700       2.13387900      -1.06354500
H       -2.44619400       1.75879700      -1.03944000
H       -0.71422100       2.13572800      -3.44655900
H       -2.45014800       1.69134800      -3.50873800
H       -1.94895600       3.28640600      -2.88293600
H       -1.34285300       0.65858200      -1.61355000
C        2.81345700      -1.78462600      -2.22044800
N        2.11003700      -0.64734200      -1.59092200
C        3.29999800      -2.81892900      -1.21086500
N        2.18998200      -3.42591100      -0.42950200
H        1.09976900      -0.84224500      -1.43209400
H        2.11932600       0.22934800      -2.14134900
H        2.13900000      -2.23929600      -2.95000400
H        3.68931400      -1.39981400      -2.74629500
H        3.99381900      -2.37184100      -0.49219100
H        3.82406100      -3.60452700      -1.75920000
H        1.91114700      -2.73222700       0.37822800
H        2.48291700      -4.29661100       0.00830900
H        1.34191300      -3.59717700      -1.00749900
H        2.50809900      -0.35777600      -0.65371400
C       -0.67520000       0.53597000       1.47742800
N       -0.84978600      -0.75543200       2.18015700
C       -0.60070900       1.72780000       2.43210800
N        0.78366200       2.27147300       2.44918000
H       -0.83259200      -1.53462600       1.48104300
H       -1.78002100      -0.78095500       2.61328600
H        0.21752100       0.45660100       0.85938500
H       -1.53442900       0.65254200       0.82944000
H       -0.87697800       1.44837900       3.45146400
H       -1.27555600       2.51571200       2.09541100
H        1.44479800       1.47427200       2.69685900
H        0.89066400       3.03824200       3.10946400
H        0.97221300       2.61933300       1.48121500
H       -0.07182500      -0.91243900       2.83088000
