56
4sa2am1ma1tma-41
S       -2.23766400       2.12008600      -1.27026000
O       -0.90299200       2.73686900      -1.50462400
O       -3.30523200       2.62754500      -2.10632200
O       -2.08581300       0.62250900      -1.29810700
O       -2.65525800       2.46726100       0.23531800
H       -2.27992400       1.80229800       0.87148800
H       -0.59178300       0.27474900      -1.93788800
S        0.27115900      -2.96665800      -0.64742300
O        1.17236800      -3.35540200       0.45107500
O       -0.61928900      -3.98861900      -1.16240700
O       -0.45879100      -1.69202300      -0.34440800
O        1.23969100      -2.56357900      -1.89129800
H        2.06602900      -2.15654700      -1.53202600
H        0.10314000      -0.48890300       0.46365200
S        3.56666300       0.22638100      -0.52700400
O        3.34217100      -1.15580600      -0.98966000
O        2.65044600       1.19297600      -1.18996500
O        3.64734000       0.39213200       0.92414600
O        5.05442800       0.62341000      -1.01895500
H        5.14405400       0.39828300      -1.95515200
S       -0.37275300       0.59374700       2.29388200
O       -0.03896200      -0.50817500       3.21519700
O       -1.80274200       0.56991800       1.89415900
O        0.11063700       1.91941800       2.69686600
O        0.46037600       0.32071000       0.93861100
N        0.31944800       0.15955500      -2.45701800
H        0.23797700       0.62340300      -3.35817000
H        0.52643600      -0.84113200      -2.56424400
H        1.09636100       0.59505900      -1.92810100
N        2.30280000      -1.66320900       2.32128100
H        1.47846100      -1.25027500       2.81033100
H        1.94240800      -2.31153600       1.58740900
H        2.84063200      -0.90055800       1.86746700
H        2.89424600      -2.17128600       2.97251400
C        1.63976700       4.44501100       0.33040700
N        1.10113200       3.07092200       0.32496300
H        0.80570400       2.75738400       1.26796600
H        0.27213400       2.98637400      -0.30711100
H        2.51159800       4.48978900       0.98278800
H        1.92270400       4.72146900      -0.68493600
H        0.87073300       5.12629600       0.69312200
H        1.78633000       2.38728900      -0.03021500
N       -3.31474300      -1.38624200       0.21147700
C       -3.02726500      -2.30120400       1.34637800
C       -4.42554600      -0.45211300       0.53128500
C       -3.57037900      -2.12875600      -1.05103800
H       -4.54110900       0.24776400      -0.29571800
H       -5.33895200      -1.03316700       0.67358600
H       -4.16939600       0.09004000       1.44041300
H       -2.22963300      -2.98024900       1.05150800
H       -2.71088800      -1.70008700       2.19811300
H       -3.93542000      -2.86196400       1.57721000
H       -2.71745100      -2.77737100      -1.25420600
H       -4.47975800      -2.72090000      -0.92877700
H       -3.68994200      -1.39853100      -1.85096400
H       -2.48014000      -0.80254800       0.03869500
56
4sa2am1ma1tma-40
S       -1.85248200       2.26721600      -1.34152000
O       -0.40502200       2.60104700      -1.40562000
O       -2.68851600       2.99396900      -2.27420000
O       -2.00716000       0.77022400      -1.40776300
O       -2.37724400       2.67387700       0.11521000
H       -2.14627200       1.98061600       0.78555900
H       -0.62585300       0.17137400      -2.13395000
S        0.06519600      -2.94978500      -0.53334000
O        0.88810200      -3.33946100       0.62435200
O       -0.89345700      -3.92554100      -1.01752900
O       -0.56091000      -1.60030300      -0.34600600
O        1.10654500      -2.71950500      -1.76180600
H        1.94445700      -2.34401600      -1.39227700
H        0.01157900      -0.42386500       0.50794200
S        3.46243400      -0.00240400      -0.57474200
O        3.46486300       0.48539500       0.82437100
O        3.20895600      -1.45542000      -0.64480800
O        2.65042000       0.82619100      -1.47246500
O        4.95719800       0.22327100      -1.14757100
H        5.56574400      -0.35895500      -0.67203500
S       -0.48916900       0.63599500       2.35476400
O       -1.89372400       0.71342800       1.88234400
O       -0.25961800      -0.50919000       3.25594800
O        0.39066300       0.34357500       1.03160700
O        0.05791500       1.91534300       2.82016300
N        0.26083900      -0.05226200      -2.65785300
H        0.19577800       0.31298300      -3.60429200
H        0.42464600      -1.06571700      -2.65541900
H        1.06101600       0.39777600      -2.17886500
N        2.12687200      -1.59676200       2.36088300
H        1.75880500      -2.25787800       1.63998200
H        1.30211600      -1.21542300       2.87391900
H        2.75465100      -2.08712500       2.99119700
H        2.62308200      -0.82094100       1.88863800
C        2.14736500       4.11771300       0.33592700
N        1.48739900       2.81894300       0.56805800
H        0.77929900       2.62568700      -0.17556100
H        2.15607800       2.03953600       0.57411000
H        1.38835100       4.89879200       0.30835400
H        2.85894100       4.31522800       1.13752700
H        2.66643600       4.07947900      -0.62125200
H        0.98510600       2.76362400       1.47027700
N       -3.41794700      -1.12763000       0.08677900
C       -3.25836900      -2.06556200       1.22880800
C       -4.46143400      -0.10487900       0.35887900
C       -3.67570700      -1.84711400      -1.18833000
H       -4.46466100       0.61179100      -0.46165200
H       -5.42801800      -0.60648700       0.43864900
H       -4.21278800       0.40181800       1.29010300
H       -2.51914900      -2.81818600       0.96057100
H       -2.91956800      -1.49630400       2.09361700
H       -4.22308500      -2.53869100       1.42386500
H       -2.86811900      -2.56121300      -1.35433800
H       -4.63240700      -2.36742400      -1.10738100
H       -3.70433400      -1.10948000      -1.98988900
H       -2.53085400      -0.61553800      -0.04657500
56
4sa2am1ma1tma-10
S       -3.45608900      -1.03483300      -1.10467900
O       -2.77199500      -0.05483000      -1.97512500
O       -2.68592300      -2.29206800      -0.98475000
O       -3.96430900      -0.49094300       0.16001700
O       -4.82849000      -1.43029200      -1.86902700
H       -4.60124700      -1.78074400      -2.74105800
S        2.65776300      -2.35080000      -0.38646500
O        1.39714100      -2.88185700      -0.97615400
O        3.20235400      -1.24965500      -1.19498800
O        2.55742800      -2.11115900       1.05460200
O        3.73268300      -3.55459400      -0.47934700
H        3.97125800      -3.68206800      -1.40824900
S        2.16553700       2.07961000      -1.27096700
O        1.24482000       1.53281000      -0.21053800
O        1.73897900       1.57156500      -2.59059700
O        2.35669800       3.51543700      -1.15998400
O        3.59511000       1.42692400      -0.93583500
H        3.53389400       0.45308900      -1.07352000
S       -1.11903600      -0.11177800       2.21204200
O       -0.98092500      -0.02889900       0.73147700
O       -0.58425700      -1.38627900       2.73497700
O       -0.57046800       1.06654800       2.90040900
O       -2.68909100      -0.09104700       2.48431700
H       -3.16981900      -0.31651300       1.64464700
N        0.02360300      -0.51049200      -1.87129600
H        0.41173800      -1.45938100      -1.91352600
H        0.00897900      -0.22792900      -0.88029900
H        0.64005900       0.16548200      -2.36380100
H       -0.95486000      -0.46890300      -2.19386400
N       -0.76856000      -3.25218400       0.73980500
H       -1.55149100      -2.88832100       0.15643700
H       -0.64714900      -2.61973600       1.56520300
H       -0.97088800      -4.19930300       1.04621700
H        0.09709700      -3.23386000       0.16683700
C        3.44899900       1.03917500       2.52552300
N        2.14907100       0.48006500       2.09716100
H        2.22010600      -0.53141000       1.89853200
H        1.39100200       0.64292000       2.77222800
H        4.17468100       0.87689000       1.72962000
H        3.33661200       2.10977700       2.69456900
H        3.77552200       0.54651400       3.44089500
H        1.82928700       0.92709500       1.20113100
N       -1.37740100       2.76194800       0.04164100
C       -1.45938500       2.95628500      -1.43069500
C       -2.73390600       2.63846000       0.63963900
C       -0.58235400       3.82694400       0.70919100
H       -2.62925900       2.47633700       1.71229000
H       -3.28170200       3.56277900       0.44565100
H       -3.24367400       1.78757000       0.18696100
H       -0.45220500       2.99066900      -1.84432600
H       -2.02023700       2.12020900      -1.85156000
H       -1.97483800       3.89858100      -1.62708200
H        0.39191900       3.89976500       0.22580600
H       -1.12709700       4.76944700       0.62117000
H       -0.46577500       3.54850100       1.75705100
H       -0.88788300       1.86351800       0.20441100
