1msa_1w.log
 OpenBabel11151907403D
Gaussian 09 #p opt freq wB97XD/6-31++G(d,p) iop(5/13=1) iop(1/11=1)
 12 10  0  0  0  0  0  0  0  0999 V2000
   -0.5567   -0.1697   -0.0749 S   0  0  0  0  0  0  0  0  0  0  0  0
   -1.4761   -1.2696    0.1057 O   0  0  0  0  0  0  0  0  0  0  0  0
    0.3041   -0.1246   -1.2584 O   0  0  0  0  0  0  0  0  0  0  0  0
    0.3770   -0.0694    1.2170 O   0  0  0  0  0  0  0  0  0  0  0  0
    1.3255    0.0478    0.9336 H   0  0  0  0  0  0  0  0  0  0  0  0
   -1.4646    1.3570    0.0226 C   0  0  0  0  0  0  0  0  0  0  0  0
   -2.1656    1.3672   -0.8128 H   0  0  0  0  0  0  0  0  0  0  0  0
   -1.9994    1.3734    0.9721 H   0  0  0  0  0  0  0  0  0  0  0  0
   -0.7617    2.1866   -0.0490 H   0  0  0  0  0  0  0  0  0  0  0  0
    2.7394    0.2107    0.0282 O   0  0  0  0  0  0  0  0  0  0  0  0
    3.4388   -0.4437    0.1048 H   0  0  0  0  0  0  0  0  0  0  0  0
    2.3014    0.0659   -0.8254 H   0  0  0  0  0  0  0  0  0  0  0  0
  1  6  1  0  0  0  0
  1  2  2  0  0  0  0
  1  4  1  0  0  0  0
  3  1  2  0  0  0  0
  5  4  1  0  0  0  0
  6  8  1  0  0  0  0
  7  6  1  0  0  0  0
  9  6  1  0  0  0  0
 10 11  1  0  0  0  0
 12 10  1  0  0  0  0
M  END
$$$$
