1msa_2mea_1w.log
 OpenBabel11151907403D
Gaussian 09 #p opt freq wB97XD/6-31++G(d,p) iop(5/13=1) iop(1/11=1)
 34 30  0  0  0  0  0  0  0  0999 V2000
    0.6952   -1.4538    0.8491 N   0  0  0  0  0  0  0  0  0  0  0  0
    0.3526   -2.8752    0.6172 C   0  0  0  0  0  0  0  0  0  0  0  0
    1.5001   -1.3110    1.4784 H   0  0  0  0  0  0  0  0  0  0  0  0
   -0.1288   -0.9371    1.2189 H   0  0  0  0  0  0  0  0  0  0  0  0
    1.1833   -3.3367    0.0772 H   0  0  0  0  0  0  0  0  0  0  0  0
    0.2397   -3.3741    1.5841 H   0  0  0  0  0  0  0  0  0  0  0  0
   -0.9386   -2.9895   -0.1903 C   0  0  0  0  0  0  0  0  0  0  0  0
   -1.1457   -4.0541   -0.3454 H   0  0  0  0  0  0  0  0  0  0  0  0
   -1.7672   -2.5604    0.3869 H   0  0  0  0  0  0  0  0  0  0  0  0
   -0.8234   -2.3698   -1.4473 O   0  0  0  0  0  0  0  0  0  0  0  0
   -1.2040   -1.4725   -1.3926 H   0  0  0  0  0  0  0  0  0  0  0  0
   -1.7325    0.9289    0.2018 S   0  0  0  0  0  0  0  0  0  0  0  0
   -0.7497    2.0304    0.3570 O   0  0  0  0  0  0  0  0  0  0  0  0
   -1.6650   -0.0605    1.3127 O   0  0  0  0  0  0  0  0  0  0  0  0
   -1.6505    0.2771   -1.1339 O   0  0  0  0  0  0  0  0  0  0  0  0
    0.9602   -0.9726   -0.0718 H   0  0  0  0  0  0  0  0  0  0  0  0
   -3.3424    1.6850    0.3030 C   0  0  0  0  0  0  0  0  0  0  0  0
   -3.4200    2.4213   -0.4969 H   0  0  0  0  0  0  0  0  0  0  0  0
   -4.0930    0.9035    0.1843 H   0  0  0  0  0  0  0  0  0  0  0  0
   -3.4307    2.1626    1.2787 H   0  0  0  0  0  0  0  0  0  0  0  0
    1.3515   -0.2005   -1.5558 N   0  0  0  0  0  0  0  0  0  0  0  0
    2.5126    0.6908   -1.5887 C   0  0  0  0  0  0  0  0  0  0  0  0
    1.4393   -0.9630   -2.2207 H   0  0  0  0  0  0  0  0  0  0  0  0
    0.4845    0.2876   -1.7847 H   0  0  0  0  0  0  0  0  0  0  0  0
    3.3641    0.1652   -1.1416 H   0  0  0  0  0  0  0  0  0  0  0  0
    2.7985    0.9765   -2.6121 H   0  0  0  0  0  0  0  0  0  0  0  0
    2.2459    1.9726   -0.8100 C   0  0  0  0  0  0  0  0  0  0  0  0
    3.1441    2.5989   -0.8404 H   0  0  0  0  0  0  0  0  0  0  0  0
    1.4275    2.5303   -1.2820 H   0  0  0  0  0  0  0  0  0  0  0  0
    1.9185    1.7323    0.5481 O   0  0  0  0  0  0  0  0  0  0  0  0
    0.9444    1.8143    0.6379 H   0  0  0  0  0  0  0  0  0  0  0  0
    2.9808   -0.3027    1.9591 O   0  0  0  0  0  0  0  0  0  0  0  0
    2.6942    0.5187    1.4971 H   0  0  0  0  0  0  0  0  0  0  0  0
    3.3361   -0.0375    2.8099 H   0  0  0  0  0  0  0  0  0  0  0  0
  1  4  1  0  0  0  0
  1  3  1  0  0  0  0
  2  1  1  0  0  0  0
  2  6  1  0  0  0  0
  5  2  1  0  0  0  0
  7  9  1  0  0  0  0
  7  2  1  0  0  0  0
  8  7  1  0  0  0  0
 10 11  1  0  0  0  0
 10  7  1  0  0  0  0
 12 17  1  0  0  0  0
 12 13  2  0  0  0  0
 12 14  1  0  0  0  0
 15 12  2  0  0  0  0
 16  1  1  0  0  0  0
 17 20  1  0  0  0  0
 18 17  1  0  0  0  0
 19 17  1  0  0  0  0
 22 21  1  0  0  0  0
 22 25  1  0  0  0  0
 22 27  1  0  0  0  0
 23 21  1  0  0  0  0
 24 21  1  0  0  0  0
 26 22  1  0  0  0  0
 27 30  1  0  0  0  0
 28 27  1  0  0  0  0
 29 27  1  0  0  0  0
 30 31  1  0  0  0  0
 32 34  1  0  0  0  0
 33 32  1  0  0  0  0
M  RAD  1  14   2
M  END
$$$$
