2msa_2mea_3w.log
 OpenBabel11151907403D
Gaussian 09 #p opt freq wB97XD/6-31++G(d,p) iop(5/13=1) iop(1/11=1)
 49 42  0  0  0  0  0  0  0  0999 V2000
    0.3145    1.8165   -0.5893 N   0  0  0  0  0  0  0  0  0  0  0  0
    0.6885    3.2524   -0.6071 C   0  0  0  0  0  0  0  0  0  0  0  0
    0.9864    1.2019   -1.0788 H   0  0  0  0  0  0  0  0  0  0  0  0
   -0.6325    1.6937   -1.0013 H   0  0  0  0  0  0  0  0  0  0  0  0
    0.7362    3.5713   -1.6504 H   0  0  0  0  0  0  0  0  0  0  0  0
   -0.1145    3.7993   -0.1056 H   0  0  0  0  0  0  0  0  0  0  0  0
    2.0266    3.4960    0.0770 C   0  0  0  0  0  0  0  0  0  0  0  0
    2.1882    4.5786    0.1182 H   0  0  0  0  0  0  0  0  0  0  0  0
    1.9833    3.1251    1.1108 H   0  0  0  0  0  0  0  0  0  0  0  0
    3.0899    2.9176   -0.6327 O   0  0  0  0  0  0  0  0  0  0  0  0
    3.2531    2.0304   -0.2644 H   0  0  0  0  0  0  0  0  0  0  0  0
    2.8020   -0.7708   -0.2881 S   0  0  0  0  0  0  0  0  0  0  0  0
    3.1159    0.4295    0.5228 O   0  0  0  0  0  0  0  0  0  0  0  0
    1.8441   -0.4553   -1.3926 O   0  0  0  0  0  0  0  0  0  0  0  0
    2.3357   -1.9144    0.5340 O   0  0  0  0  0  0  0  0  0  0  0  0
    0.2393    1.4658    0.3857 H   0  0  0  0  0  0  0  0  0  0  0  0
    4.3152   -1.2947   -1.0664 C   0  0  0  0  0  0  0  0  0  0  0  0
    5.0382   -1.5184   -0.2820 H   0  0  0  0  0  0  0  0  0  0  0  0
    4.1020   -2.1836   -1.6603 H   0  0  0  0  0  0  0  0  0  0  0  0
    4.6690   -0.4807   -1.6996 H   0  0  0  0  0  0  0  0  0  0  0  0
   -2.9944    0.4416   -0.8712 S   0  0  0  0  0  0  0  0  0  0  0  0
   -2.3648    1.7257   -1.2659 O   0  0  0  0  0  0  0  0  0  0  0  0
   -2.8171    0.8841    2.7213 O   0  0  0  0  0  0  0  0  0  0  0  0
   -1.9639   -0.6266   -0.6792 O   0  0  0  0  0  0  0  0  0  0  0  0
   -0.8840   -1.1963    0.6477 H   0  0  0  0  0  0  0  0  0  0  0  0
   -3.9924   -0.0806   -2.2515 C   0  0  0  0  0  0  0  0  0  0  0  0
   -4.4570   -1.0330   -1.9962 H   0  0  0  0  0  0  0  0  0  0  0  0
   -4.7499    0.6843   -2.4234 H   0  0  0  0  0  0  0  0  0  0  0  0
   -3.3444   -0.1838   -3.1222 H   0  0  0  0  0  0  0  0  0  0  0  0
   -0.3224   -1.8355    1.2387 N   0  0  0  0  0  0  0  0  0  0  0  0
   -0.3191   -1.4108    2.6572 C   0  0  0  0  0  0  0  0  0  0  0  0
   -0.7054   -2.7832    1.0750 H   0  0  0  0  0  0  0  0  0  0  0  0
    0.6575   -1.8654    0.8763 H   0  0  0  0  0  0  0  0  0  0  0  0
   -1.3554   -1.3462    2.9984 H   0  0  0  0  0  0  0  0  0  0  0  0
    0.2071   -2.1712    3.2391 H   0  0  0  0  0  0  0  0  0  0  0  0
    0.3825   -0.0653    2.8064 C   0  0  0  0  0  0  0  0  0  0  0  0
    0.3772    0.2123    3.8678 H   0  0  0  0  0  0  0  0  0  0  0  0
    1.4215   -0.1363    2.4729 H   0  0  0  0  0  0  0  0  0  0  0  0
   -0.2294    0.9394    2.0199 O   0  0  0  0  0  0  0  0  0  0  0  0
   -1.1669    1.0466    2.3021 H   0  0  0  0  0  0  0  0  0  0  0  0
   -0.2180   -2.3422   -1.9856 O   0  0  0  0  0  0  0  0  0  0  0  0
    0.6064   -1.8320   -1.9028 H   0  0  0  0  0  0  0  0  0  0  0  0
   -0.9142   -1.7015   -1.7630 H   0  0  0  0  0  0  0  0  0  0  0  0
   -0.7657   -4.2053   -0.0838 O   0  0  0  0  0  0  0  0  0  0  0  0
   -0.5130   -3.6818   -0.8791 H   0  0  0  0  0  0  0  0  0  0  0  0
   -1.4514   -4.8183   -0.3553 H   0  0  0  0  0  0  0  0  0  0  0  0
   -3.9109    0.5479    0.2844 O   0  0  0  0  0  0  0  0  0  0  0  0
   -3.2925    0.7593    1.8667 H   0  0  0  0  0  0  0  0  0  0  0  0
   -3.2836    1.5777    3.1932 H   0  0  0  0  0  0  0  0  0  0  0  0
  1 16  1  0  0  0  0
  2  1  1  0  0  0  0
  2  6  1  0  0  0  0
  2  7  1  0  0  0  0
  3  1  1  0  0  0  0
  4  1  1  0  0  0  0
  5  2  1  0  0  0  0
  7  8  1  0  0  0  0
  7  9  1  0  0  0  0
 10 11  1  0  0  0  0
 10  7  1  0  0  0  0
 12 13  2  0  0  0  0
 12 15  1  0  0  0  0
 14 12  2  0  0  0  0
 17 12  1  0  0  0  0
 17 18  1  0  0  0  0
 19 17  1  0  0  0  0
 20 17  1  0  0  0  0
 21 24  2  0  0  0  0
 21 47  1  0  0  0  0
 22 21  2  0  0  0  0
 23 49  1  0  0  0  0
 25 30  1  0  0  0  0
 26 27  1  0  0  0  0
 26 21  1  0  0  0  0
 28 26  1  0  0  0  0
 29 26  1  0  0  0  0
 30 31  1  0  0  0  0
 31 36  1  0  0  0  0
 31 34  1  0  0  0  0
 31 35  1  0  0  0  0
 32 30  1  0  0  0  0
 33 30  1  0  0  0  0
 36 37  1  0  0  0  0
 38 36  1  0  0  0  0
 39 40  1  0  0  0  0
 39 36  1  0  0  0  0
 41 42  1  0  0  0  0
 41 43  1  0  0  0  0
 45 44  1  0  0  0  0
 46 44  1  0  0  0  0
 48 23  1  0  0  0  0
M  RAD  2  15   2  47   2
M  END
$$$$
