2msa_3w.log
 OpenBabel11151907403D
Gaussian 09 #p opt freq wB97XD/6-31++G(d,p) iop(5/13=1) iop(1/11=1)
 27 21  0  0  0  0  0  0  0  0999 V2000
    2.3048   -0.3646   -0.0402 S   0  0  0  0  0  0  0  0  0  0  0  0
    2.4093    0.4030   -1.2899 O   0  0  0  0  0  0  0  0  0  0  0  0
    1.1532   -1.3367   -0.0472 O   0  0  0  0  0  0  0  0  0  0  0  0
    2.2784    0.4786    1.1891 O   0  0  0  0  0  0  0  0  0  0  0  0
    0.9646    0.9740    1.7391 H   0  0  0  0  0  0  0  0  0  0  0  0
    3.7558   -1.3780    0.0977 C   0  0  0  0  0  0  0  0  0  0  0  0
    3.6809   -1.9575    1.0174 H   0  0  0  0  0  0  0  0  0  0  0  0
    3.7944   -2.0289   -0.7755 H   0  0  0  0  0  0  0  0  0  0  0  0
    4.6188   -0.7126    0.1255 H   0  0  0  0  0  0  0  0  0  0  0  0
   -2.1974   -0.5778    0.0092 S   0  0  0  0  0  0  0  0  0  0  0  0
   -2.9261    0.6356   -0.3407 O   0  0  0  0  0  0  0  0  0  0  0  0
   -1.6872   -0.6858    1.3838 O   0  0  0  0  0  0  0  0  0  0  0  0
   -1.0264   -0.7670   -1.0058 O   0  0  0  0  0  0  0  0  0  0  0  0
   -0.0779   -1.0180   -0.5706 H   0  0  0  0  0  0  0  0  0  0  0  0
   -3.2391   -1.9792   -0.3002 C   0  0  0  0  0  0  0  0  0  0  0  0
   -3.5490   -1.9431   -1.3445 H   0  0  0  0  0  0  0  0  0  0  0  0
   -2.6686   -2.8831   -0.0878 H   0  0  0  0  0  0  0  0  0  0  0  0
   -4.1002   -1.8961    0.3635 H   0  0  0  0  0  0  0  0  0  0  0  0
    0.0305    1.2697    2.0375 O   0  0  0  0  0  0  0  0  0  0  0  0
   -0.3746    1.9556    1.3206 H   0  0  0  0  0  0  0  0  0  0  0  0
   -0.5567    0.4762    1.9943 H   0  0  0  0  0  0  0  0  0  0  0  0
    0.1440    1.8826   -1.9477 O   0  0  0  0  0  0  0  0  0  0  0  0
    1.0357    1.5089   -1.8140 H   0  0  0  0  0  0  0  0  0  0  0  0
   -0.4044    1.1186   -2.1632 H   0  0  0  0  0  0  0  0  0  0  0  0
   -0.9753    2.7090    0.3082 O   0  0  0  0  0  0  0  0  0  0  0  0
   -1.8771    2.3829    0.1621 H   0  0  0  0  0  0  0  0  0  0  0  0
   -0.5083    2.5326   -0.5536 H   0  0  0  0  0  0  0  0  0  0  0  0
  1  6  1  0  0  0  0
  1  4  1  0  0  0  0
  2  1  2  0  0  0  0
  3  1  2  0  0  0  0
  5 19  1  0  0  0  0
  6  9  1  0  0  0  0
  6  7  1  0  0  0  0
  8  6  1  0  0  0  0
 10 12  2  0  0  0  0
 11 10  2  0  0  0  0
 13 14  1  0  0  0  0
 13 10  1  0  0  0  0
 15 17  1  0  0  0  0
 15 10  1  0  0  0  0
 15 18  1  0  0  0  0
 16 15  1  0  0  0  0
 21 19  1  0  0  0  0
 22 23  1  0  0  0  0
 24 22  1  0  0  0  0
 26 25  1  0  0  0  0
 27 25  1  0  0  0  0
M  RAD  2   4   2  20   2
M  END
$$$$
