2msa_1mea_1w.log
 OpenBabel11151907403D
Gaussian 09 #p opt freq wB97XD/6-31++G(d,p) iop(5/13=1) iop(1/11=1)
 32 28  0  0  0  0  0  0  0  0999 V2000
   -0.1120    1.9697    0.5135 N   0  0  0  0  0  0  0  0  0  0  0  0
   -0.5411    3.1562   -0.2595 C   0  0  0  0  0  0  0  0  0  0  0  0
    0.5605    2.1808    1.2783 H   0  0  0  0  0  0  0  0  0  0  0  0
    0.3894    1.2912   -0.1074 H   0  0  0  0  0  0  0  0  0  0  0  0
   -1.0004    3.8678    0.4300 H   0  0  0  0  0  0  0  0  0  0  0  0
    0.3483    3.6087   -0.7043 H   0  0  0  0  0  0  0  0  0  0  0  0
   -1.5418    2.7336   -1.3274 C   0  0  0  0  0  0  0  0  0  0  0  0
   -1.8298    3.6204   -1.9031 H   0  0  0  0  0  0  0  0  0  0  0  0
   -1.0692    2.0206   -2.0152 H   0  0  0  0  0  0  0  0  0  0  0  0
   -2.6863    2.1809   -0.7212 O   0  0  0  0  0  0  0  0  0  0  0  0
   -2.7001    1.2232   -0.8791 H   0  0  0  0  0  0  0  0  0  0  0  0
   -1.8713   -1.2913    0.2386 S   0  0  0  0  0  0  0  0  0  0  0  0
   -0.8045   -2.3644   -0.1120 O   0  0  0  0  0  0  0  0  0  0  0  0
   -2.3330   -0.5989   -0.9675 O   0  0  0  0  0  0  0  0  0  0  0  0
   -1.4141   -0.4317    1.3345 O   0  0  0  0  0  0  0  0  0  0  0  0
   -0.9104    1.4540    0.9043 H   0  0  0  0  0  0  0  0  0  0  0  0
   -3.1900   -2.3264    0.8217 C   0  0  0  0  0  0  0  0  0  0  0  0
   -2.8405   -2.8622    1.7036 H   0  0  0  0  0  0  0  0  0  0  0  0
   -4.0260   -1.6711    1.0679 H   0  0  0  0  0  0  0  0  0  0  0  0
   -3.4614   -3.0162    0.0229 H   0  0  0  0  0  0  0  0  0  0  0  0
    2.2705   -0.6405   -0.3365 S   0  0  0  0  0  0  0  0  0  0  0  0
    3.0975    0.0761    0.6539 O   0  0  0  0  0  0  0  0  0  0  0  0
    1.3079    0.2368   -1.0560 O   0  0  0  0  0  0  0  0  0  0  0  0
    1.5857   -1.8382    0.2474 O   0  0  0  0  0  0  0  0  0  0  0  0
    0.1985   -2.0737    0.0337 H   0  0  0  0  0  0  0  0  0  0  0  0
    3.3894   -1.2779   -1.5646 C   0  0  0  0  0  0  0  0  0  0  0  0
    3.9094   -0.4340   -2.0179 H   0  0  0  0  0  0  0  0  0  0  0  0
    4.0926   -1.9428   -1.0631 H   0  0  0  0  0  0  0  0  0  0  0  0
    2.8048   -1.8200   -2.3079 H   0  0  0  0  0  0  0  0  0  0  0  0
    2.0686    2.0816    2.2026 O   0  0  0  0  0  0  0  0  0  0  0  0
    2.1175    1.8560    3.1344 H   0  0  0  0  0  0  0  0  0  0  0  0
    2.5399    1.3674    1.7206 H   0  0  0  0  0  0  0  0  0  0  0  0
  1 16  1  0  0  0  0
  1  3  1  0  0  0  0
  2  5  1  0  0  0  0
  2  1  1  0  0  0  0
  4  1  1  0  0  0  0
  6  2  1  0  0  0  0
  7 10  1  0  0  0  0
  7  2  1  0  0  0  0
  8  7  1  0  0  0  0
  9  7  1  0  0  0  0
 11 10  1  0  0  0  0
 12 17  1  0  0  0  0
 12 15  2  0  0  0  0
 13 25  1  0  0  0  0
 13 12  1  0  0  0  0
 14 12  2  0  0  0  0
 17 19  1  0  0  0  0
 17 18  1  0  0  0  0
 20 17  1  0  0  0  0
 21 24  2  0  0  0  0
 21 22  1  0  0  0  0
 23 21  2  0  0  0  0
 26 28  1  0  0  0  0
 26 21  1  0  0  0  0
 27 26  1  0  0  0  0
 29 26  1  0  0  0  0
 30 31  1  0  0  0  0
 32 30  1  0  0  0  0
M  RAD  1  22   2
M  END
$$$$
