15
1sa2am-01
S        0.00000400       0.49398200       0.00000600
O       -1.04068500       1.20958000      -0.71179800
O        1.04070200       1.20959500       0.71178200
O       -0.67452500      -0.48404900       1.04027400
O        0.67451400      -0.48405200      -1.04026600
H       -1.60708500      -0.74363600       0.70262300
H        1.60707700      -0.74363900      -0.70261800
N       -3.07768700      -0.90877600       0.01462000
H       -3.86949100      -0.82597600       0.64335700
H       -3.21170300      -1.73287000      -0.56171300
H       -3.06110500      -0.09216400      -0.59358000
N        3.07767700      -0.90879000      -0.01462300
H        3.21168700      -1.73288400       0.56171000
H        3.06110500      -0.09217600       0.59357600
H        3.86948000      -0.82599800      -0.64336300
15
1sa2am-02
S        0.91862500      -0.14363000      -0.05674600
O        1.56765400      -1.23158700      -0.77149100
O        0.38802000       0.93289400      -0.95491900
O       -0.08508600      -0.49972400       0.95932300
O        2.08835100       0.58400500       0.82289700
H        2.91582000       0.48736000       0.33358000
N       -1.98438400       1.49409300      -0.02589500
H       -2.52560000       2.19771600      -0.51917200
H       -2.46080400       0.53995300      -0.03774300
H       -1.00586700       1.35356200      -0.46733000
H       -1.84350000       1.77215300       0.94261600
N       -2.77156000      -1.17136900       0.02774000
H       -2.81838500      -1.65014500      -0.86652900
H       -3.48523400      -1.57256400       0.62710200
H       -1.85433900      -1.37372500       0.43601000
15
1sa2am-03
S       -0.81861600      -0.05790300      -0.01335800
O       -0.36148500       0.58214300      -1.25668100
O       -0.51349500      -1.49209200       0.09992000
O       -0.40518700       0.71070000       1.19136900
O       -2.43625700       0.05655700      -0.09567400
H       -2.80690000      -0.54576200       0.56308300
N        1.89775200       1.47368000       0.02798100
H        1.36119100       1.57428900      -0.84377000
H        2.57495200       2.21604500       0.16670900
H        1.14884900       1.44249600       0.75767900
H        2.32616600       0.48989600       0.01380600
N        2.50381700      -1.22995600      -0.01231000
H        1.52578400      -1.53902600       0.04497400
H        3.00217000      -1.66034500       0.76063000
H        2.88605800      -1.61568100      -0.87054100
