23
1sa1am1eda-01
S       -1.65218400      -0.39994700      -0.10104500
O       -3.03610100      -0.69072400      -0.44068100
O       -0.69960200      -0.48945000      -1.24371500
O       -1.38635800       0.79439200       0.71659300
O       -1.18127900      -1.62964000       0.90027700
H       -1.81614400      -2.34589300       0.77338900
H        2.61460300       0.85984000       1.23237100
H        0.94680900       0.24643900       1.38108400
H        2.58900200      -1.64689800       1.39070100
H        1.50870600      -1.71073900      -0.00333100
H        4.33002900      -0.94003900      -0.04436100
H        3.50966300      -1.91771000      -1.06616600
H        1.15249100       1.90702600      -0.37808400
H        2.26423300       0.83959800      -1.16923600
C        1.83729100       0.25942400       0.74974500
C        2.33206500      -1.14917500       0.44739100
N        1.47139500       0.91527600      -0.52862400
N        3.43911100      -1.07479200      -0.50964800
H        0.64553000       0.39469000      -0.93845200
N        0.06298500       3.27344400       0.07511100
H       -0.27600000       3.87240600      -0.67093700
H        0.25886300       3.86772800       0.87393400
H       -0.69670600       2.63710100       0.33531900
23
1sa1am1eda-03
S       -1.61627200      -0.62312600       0.07847500
O       -0.49881800      -1.05414000      -0.81154400
O       -2.57118500      -1.67460700       0.38292100
O       -1.12780500       0.20724100       1.18950800
O       -2.44442000       0.49048600      -0.82719600
H       -3.07665300       0.00256700      -1.37032300
H        2.69503700       1.18370100       1.09098800
H        1.23977400       0.21889100       1.46592700
H        3.27732500      -1.24246700       1.42062600
H        2.12657200      -1.67112900       0.14991100
H        4.66051300      -0.26045100      -0.22985100
H        4.03962000      -1.51328500      -1.07645600
H        0.88190300       1.71665600      -0.41127200
H        2.12440400       0.85242000      -1.25292800
C        2.04123200       0.37850200       0.74199400
C        2.82811600      -0.89897400       0.48006500
N        1.40741500       0.80896900      -0.52622200
N        3.79975200      -0.65826100      -0.58973500
H        0.68333200       0.08249900      -0.78837700
N       -0.43237200       2.85443700       0.04064700
H       -1.11042000       2.93358900      -0.71224500
H       -0.32141100       3.77278200       0.45649600
H       -0.86148300       2.22921000       0.72720000
23
1sa1am1eda-05
S       -1.61939400      -0.41710800      -0.02647300
O       -1.12697400       0.03449300       1.27806200
O       -2.41525500       0.56472600      -0.77550300
O       -0.54176700      -1.02864300      -0.85842200
O       -2.62930400      -1.64131300       0.33817400
H       -3.15068100      -1.83262700      -0.45262000
H        2.63910200       1.12546200       1.16799800
H        1.20711100       0.09286600       1.44204600
H        3.30290400      -1.28868300       1.40757800
H        2.20867500      -1.70278700       0.08430800
H        4.69576500      -0.18009100      -0.15609700
H        4.15884200      -1.42680500      -1.06633100
H        0.86640900       1.67282400      -0.37658000
H        2.16647600       0.88249500      -1.21151800
C        2.02916600       0.31455900       0.75816200
C        2.87104300      -0.92067700       0.46808900
N        1.42777900       0.78435800      -0.51236100
N        3.86547100      -0.60092900      -0.55907100
H        0.73305100       0.05904100      -0.83204400
N       -0.46585300       2.77860800       0.03673000
H       -0.45375500       3.79043900      -0.03307500
H       -0.70166700       2.52512500       0.99420000
H       -1.24856000       2.42481400      -0.51737800
