53
3sa1ma1tma1eda-3
S        2.57946100       1.58112800      -1.35984300
O        1.20452500       1.66090700      -1.93146300
O        3.01986600       0.15186100      -1.32543300
O        2.41543000       1.98577900       0.20509400
O        3.53894000       2.52097800      -1.89099600
H        1.75266400       1.37389700       0.60058000
H        0.48623800       0.06639600      -2.02525100
S       -3.30779800      -0.69485900      -0.84533100
O       -2.36382000      -0.39734900       0.26042600
O       -4.21222300       0.40786300      -1.15397800
O       -4.20130500      -1.89315100      -0.20567700
O       -2.60979300      -1.27345500      -2.01211100
H       -4.96002000      -2.04815300      -0.78498100
H       -1.52564900      -1.30258200       1.39282200
S        0.16185900      -0.35460800       2.29326400
O        1.35049800      -0.94340100       2.91605200
O        0.49006900       0.23424600       0.93859600
O       -0.75561400      -1.63099800       1.92805600
O       -0.63109600       0.57086800       3.09078200
H       -1.10437300       1.46623500       0.59344000
N        3.12323500      -1.51402000       0.79218700
H        2.66663800      -1.16614400       1.65300900
H        3.12369100      -0.75686600       0.06590500
C        4.48887100      -2.01375700       1.04206900
H        4.45679300      -2.81460500       1.78113900
H        4.90985300      -2.38563900       0.10798100
H        5.10676900      -1.19659900       1.41317900
N       -1.47204700       2.43076700       0.56582600
C       -2.74700200       2.44439100       1.33443300
C       -0.44711200       3.30014800       1.20427000
C       -1.67515900       2.78577600      -0.86635700
H        0.46855400       3.26463800       0.61423700
H       -0.83472000       4.32007900       1.23890000
H       -0.26188600       2.92336300       2.21036100
H       -3.47291800       1.81897900       0.81754800
H       -2.54531500       2.04543500       2.32836900
H       -3.09961000       3.47632300       1.39055600
H       -2.44851400       2.13659300      -1.27899500
H       -2.00097000       3.82666700      -0.91857400
H       -0.72612600       2.65398100      -1.39045600
C        0.85985900      -2.00668000      -2.18014900
N        0.12044300      -0.83687400      -1.64979200
C        0.49860600      -3.28694000      -1.44046700
N        0.96464800      -3.26782500      -0.04446800
H        0.23697300      -0.71078900      -0.63029100
H       -0.89645400      -0.92805600      -1.84305800
H        0.59909800      -2.10067800      -3.23665900
H        1.92376400      -1.77768700      -2.10039400
H        0.99980300      -4.10858200      -1.95959700
H       -0.58276600      -3.46265100      -1.51635600
H        2.47659100      -2.25549200       0.43267100
H        1.04785400      -4.21911200       0.30012000
H        0.28155100      -2.82068700       0.57050900
53
3sa1ma1tma1eda-154
S       -1.12899400      -2.21075900      -0.54902200
O       -0.12928900      -3.41264200      -0.82293300
O       -2.20714700      -2.34465500      -1.51851400
O       -0.29198000      -0.96975800      -0.75878700
O       -1.56841100      -2.28223300       0.86151300
H       -0.73536000       0.54813900      -1.10508800
H        0.71425700      -3.26507500      -0.32044600
S        2.84420600      -1.43133700       0.14036200
O        2.42093000      -0.32178700       1.07603400
O        2.14281800      -2.68097500       0.48503100
O        2.29217800      -0.96111500      -1.30056300
O        4.28490900      -1.48695100      -0.03255100
H        4.82508400       0.32750500      -1.55410500
H        1.30297800      -1.00980700      -1.27399900
S       -1.31985200       2.29583400       0.03521700
O       -1.86430400       1.22440400       0.94472900
O       -0.06761500       2.85348100       0.57893800
O       -0.92417800       1.50618200      -1.30922300
O       -2.33474000       3.25706900      -0.37069700
H       -3.23142700       0.45418900       0.23572700
H       -0.54008400      -1.30747700       1.91369900
N       -0.05789000      -0.45306600       2.25275300
H       -0.63936700       0.31931500       1.87790500
H        0.87323900      -0.42179000       1.78288500
C        0.08178000      -0.40848400       3.71913700
H       -0.90328900      -0.47150700       4.18180400
H        0.69610500      -1.24775700       4.04454900
H        0.56137200       0.52713500       4.00641500
N       -4.17630900       0.29730700      -0.18870900
C       -4.01973200       0.37258100      -1.66928000
C       -4.68161800      -1.03155300       0.24454100
C       -5.01214200       1.41424100       0.32461900
H       -4.67209300      -1.07178100       1.33387500
H       -5.70077700      -1.15409900      -0.12870400
H       -4.02863300      -1.80454000      -0.16063300
H       -3.57917200       1.33784000      -1.91991600
H       -3.36610900      -0.44067000      -1.98745200
H       -5.00685000       0.26900700      -2.12527700
H       -4.52851500       2.35469700       0.05596600
H       -6.00793600       1.34258200      -0.11766900
H       -5.07547400       1.33334000       1.41008400
C        4.82553500       1.89326200      -0.21788200
C        3.60308300       2.78130600       0.03632200
N        2.39684000       2.01082900      -0.34715800
N        4.74938100       1.33991100      -1.56668000
H        5.45101800       1.71637800      -2.18950000
H        2.52702400       1.69051800      -1.31428500
H        4.82906900       1.07588900       0.51003300
H        5.73028000       2.48731200      -0.04893500
H        3.63106200       3.68576500      -0.57631200
H        3.51286100       3.06375900       1.08714100
H        1.50240800       2.51695800      -0.21774400
H        2.34159900       1.14321100       0.23504600
53
3sa1ma1tma1eda-79
S       -2.13826700       1.66489600       0.59236500
O       -2.23614300       0.34300300       1.28769200
O       -3.31978200       2.49673400       0.69908300
O       -0.83876800       2.30525200       0.92664100
O       -2.04630100       1.29486200      -0.98209000
H       -1.22595600       0.75421000      -1.12562900
H        1.56584400       0.28775300       1.85614700
S        3.69794100      -0.90245400       0.58466700
O        2.93763300       0.36450700       0.84175900
O        5.04958600      -0.90019200       1.09378700
O        2.91350000      -2.03334200       1.43253100
O        3.55260900      -1.28394700      -0.84701400
H        2.25735600      -1.80744800      -1.54274000
H        2.04082100      -2.19824000       1.00956600
S        0.18588100      -1.56800800      -1.09029200
O        0.22790400      -0.07263800      -1.16335600
O       -1.02923100      -2.12114500      -1.69757600
O        1.37956000      -2.10412700      -1.95659900
O        0.40106800      -2.01151500       0.31461700
H       -2.91208100      -0.90763200       0.42518800
N        0.56564600       0.18903600       2.13043600
H        0.21546100      -0.59654600       1.56184300
H        0.05835700       1.03115500       1.79877400
C        0.36580100      -0.05135700       3.57147500
H        0.89776500      -0.95836600       3.85833000
H        0.75767500       0.79541000       4.13459000
H       -0.70161600      -0.15929000       3.76252600
N        1.90061700       2.16898400      -1.16149300
C        2.20459200       3.10974700      -0.04997900
C        3.11347700       1.82679600      -1.95045400
C        0.81691000       2.69937900      -2.03012300
H        2.85078000       1.05354400      -2.67195900
H        3.46284500       2.72736500      -2.45954700
H        3.87221300       1.44144000      -1.27309800
H        1.28262800       3.28307100       0.50650000
H        2.95932200       2.64957900       0.58571300
H        2.57113100       4.04428400      -0.47996900
H       -0.05736400       2.89993500      -1.41170700
H        1.17096300       3.61753700      -2.50315500
H        0.57503700       1.94904800      -2.78160600
H        1.56205100       1.27985700      -0.75320000
C       -4.34641000      -0.96117600      -1.08396300
C       -5.48191000      -0.47950500      -0.18821100
N       -5.96843800      -1.60492600       0.61352200
N       -3.32749500      -1.62009400      -0.22778300
H       -2.54001400      -2.01102400      -0.77940900
H       -3.79976000      -2.33123300       0.33687800
H       -3.86291300      -0.13068600      -1.59925500
H       -4.69354800      -1.69457700      -1.81683100
H       -6.25153700      -0.01091100      -0.81365200
H       -5.09597100       0.29532500       0.48156500
H       -6.68162800      -2.13471700       0.12448700
H       -6.36690100      -1.29369300       1.49077500
