35
2sa3ma-44
S        2.27699500      -0.06773600       0.08493100
O        1.63240400      -1.35808600       0.52718100
O        1.85924800       1.01612100       1.02401700
O        1.58500200       0.27402600      -1.31307400
O        3.69457000      -0.16302900      -0.17724200
H        0.57194000       0.30452200      -1.22300300
H        0.70708200      -2.21938400      -0.68418600
S       -2.02897500       0.16880800      -0.26836100
O       -1.65928600       1.06823800       0.92895800
O       -0.95567100       0.39933200      -1.31736200
O       -3.35694100       0.47777500      -0.77287800
O       -1.88649400      -1.25658100       0.22776700
H       -0.73191000       2.28178400       0.46696800
H       -0.74773300       0.18498800       1.92825400
N       -0.13430800      -2.62938400      -1.14302400
H       -0.94727400      -2.12022800      -0.65332400
H       -0.16914100      -3.61741000      -0.90363300
C       -0.15343400      -2.41841600      -2.60913200
H       -0.24022700      -1.34803000      -2.78753800
H        0.76420600      -2.80680300      -3.05083800
H       -1.02225400      -2.92494300      -3.02964100
N        0.08605200       2.92503700       0.22295300
H        0.91843000       2.31627600       0.39516000
H        0.11552300       3.68947100       0.89356700
C        0.00821200       3.42135400      -1.17136400
H       -0.14030500       2.56019100      -1.82045700
H       -0.84639800       4.09161600      -1.26333100
H        0.93054200       3.94267300      -1.42715400
N       -0.13387000      -0.47782900       2.48896400
H        0.50107100       0.07434400       3.06207200
H        0.46697800      -0.95203100       1.78162300
C       -0.95955800      -1.42341600       3.26626500
H       -1.53538600      -0.87370900       4.01101500
H       -1.64136700      -1.90587600       2.56633400
H       -0.32120200      -2.15885900       3.75718400
35
2sa3ma-28
S        2.13563300       0.01738600       0.05580000
O        1.28952700      -0.25860100      -1.17937100
O        3.54934400       0.11001000      -0.26901400
O        1.60209300       1.33450700       0.65055000
O        1.82028400      -1.05524800       1.08090500
H       -0.73082800      -0.22119400       1.88932800
H        0.82668000       2.12808200      -0.52509800
S       -2.16822700      -0.29074900      -0.32706000
O       -1.68372300      -1.17361600       0.79627500
O       -1.87655300       1.12973000       0.01926900
O       -1.20764200      -0.65017000      -1.55704100
O       -3.51310300      -0.57327100      -0.77306100
H       -0.58871000      -2.46559900       0.25370100
H       -0.23473700      -0.48758000      -1.31789200
N       -0.15949300       0.44514300       2.45521400
H        0.50772500       0.90008300       1.76597700
H        0.43039000      -0.09818500       3.08231200
C       -1.02091300       1.42147300       3.14984200
H       -1.64198100       1.90458900       2.39584900
H       -1.65888100       0.90692800       3.86896700
H       -0.40055600       2.15744200       3.66204000
N        0.16380500       2.35524500      -1.32511300
H       -0.75474400       1.99836600      -0.98217100
H        0.46828000       1.73523800      -2.07784600
C        0.13747800       3.77721900      -1.70953500
H       -0.17946800       4.36738000      -0.84996700
H        1.13663500       4.08878600      -2.01378000
H       -0.56443500       3.92692700      -2.53010700
N        0.31143200      -2.98425500       0.18744400
H        0.27002500      -3.76220400       0.84150000
H        1.03262100      -2.26359100       0.53940000
C        0.62276000      -3.43935000      -1.18791800
H       -0.21297600      -4.01410200      -1.58647000
H        0.80171000      -2.55540800      -1.79773600
H        1.52679300      -4.04786200      -1.16308400
35
2sa3ma-31
S       -2.17078200       0.23403300      -0.36350500
O       -1.69602400       1.11960000       0.76315400
O       -3.49626800       0.54265800      -0.84869400
O       -1.16952000       0.54292500      -1.56890100
O       -1.92949000      -1.18822400       0.01719800
H       -0.81430100      -2.11693700      -0.89997100
H       -0.20266400       0.39830100      -1.28826600
S        2.11533600      -0.10012000       0.15622800
O        1.31202600       0.25654400      -1.08155200
O        3.53337800      -0.23069800      -0.13514200
O        1.80925100       0.94224400       1.21628700
O        1.52390300      -1.42110800       0.68797100
H        0.41238600      -0.98297400       1.79497600
H        1.05252500       2.17451100       0.64922000
N        0.34664300       2.90240400       0.28578000
H        0.28168000       3.66481000       0.95612200
H       -0.55676600       2.38367300       0.30577300
C        0.70332500       3.39085400      -1.06677900
H        1.61819100       3.97988100      -1.00131800
H        0.88026200       2.52035500      -1.69598200
H       -0.11036900       3.99467200      -1.46828600
N       -0.25277500      -0.51284200       2.47451700
H       -0.80405800       0.15928500       1.89521500
H        0.34471900       0.02468000       3.09975900
C       -1.13937700      -1.46529700       3.16974500
H       -1.76600500      -1.94067900       2.41539300
H       -0.53877000      -2.21028700       3.69240000
H       -1.77112900      -0.93195600       3.88061000
N        0.06171400      -2.63294800      -1.14393100
H       -0.08392500      -3.61588200      -0.92613700
H        0.77337800      -2.22658900      -0.45669100
C        0.47572400      -2.43767000      -2.55327600
H       -0.33908600      -2.72356500      -3.21837600
H        0.72595600      -1.38586200      -2.68104700
H        1.35995700      -3.04319600      -2.75222500
