47
1sa1msa1fa2tma-1
S        0.79568900      -1.43618500       0.31039900
O       -0.06307300      -2.62207300       0.32803800
O        0.33278600      -0.39779000       1.27455200
O        2.24080100      -1.69873000       0.43138800
O        0.67667300      -0.75244900      -1.14185500
H       -0.23125400      -0.36490900      -1.23787300
S       -2.06347200       1.63408700      -0.70111600
O       -0.79881700       2.35555700      -0.50065100
O       -2.99037000       1.63145900       0.44465300
O       -1.83859400       0.22169500      -1.21088800
C       -2.90234400       2.45503800      -2.04884100
H       -3.83975700       1.93426300      -2.24604300
H       -3.09338000       3.48453900      -1.74447300
H       -2.25369400       2.42757500      -2.92464600
H        5.77494800      -1.12350100      -2.10641300
H        3.40106600      -1.87116100      -0.72234800
C        4.95201100      -0.96595000      -1.39419500
O        4.15018700      -2.00523100      -1.36763800
O        4.83773000       0.05270700      -0.74089000
N       -3.23983900      -1.53467200       0.33805200
C       -4.62341200      -1.02666100       0.17024000
H       -4.64804200       0.01040500       0.50454000
H       -4.88913300      -1.08061300      -0.88653000
H       -5.30235400      -1.64875000       0.75780300
C       -3.09272500      -2.91745600      -0.18384100
H       -3.39830500      -2.92844500      -1.23101500
H       -2.04479800      -3.20337200      -0.09567100
H       -3.73308000      -3.58266900       0.40009700
C       -2.78379600      -1.41563300       1.74970000
H       -1.75865700      -1.77876500       1.81028100
H       -2.81818500      -0.36039400       2.02101200
H       -3.44952500      -2.00916500       2.38116700
H       -2.62251500      -0.90418400      -0.23599900
N        1.95471700       1.74593300       1.11705500
C        2.32001700       2.08745900      -0.28366100
H        2.78254600       1.21305200      -0.73891200
H        1.40891300       2.36522600      -0.81100700
H        3.03788500       2.91097300      -0.26316300
C        1.29421400       2.87696600       1.81044800
H        0.40274800       3.14852400       1.24463800
H        1.01258300       2.55402700       2.81373700
H        1.99421500       3.71387400       1.87034600
C        3.12316500       1.22447500       1.87074100
H        2.78449300       0.90192500       2.85591100
H        3.53924600       0.37975500       1.32172800
H        3.86929300       2.01713900       1.96151000
H        1.25375500       0.95880300       1.08981700
47
1sa1msa1fa2tma-2
S       -0.15261900      -1.01959200      -1.69322400
O       -1.18053400      -1.69560700      -2.46596500
O       -0.10207100       0.46044000      -2.25505500
O       -0.51290800      -0.85385600      -0.23336900
O        1.21089900      -1.59490400      -1.78728700
H        2.15730500      -1.25377200      -0.48907300
S        0.79497500       2.48798000       0.53154400
O        1.43332600       1.96034300       1.74976400
O       -0.68131300       2.43836400       0.52437200
O        1.38508400       1.87861200      -0.71394500
H        0.47897400       1.04279700      -1.66044700
C        1.23517500       4.21848500       0.43823600
H        0.84087200       4.71138800       1.32733900
H        2.32207800       4.29784000       0.40658600
H        0.79260900       4.63951600      -0.46481600
H       -1.35671500      -3.50677800       3.14496300
H       -0.52977000      -2.04308700       0.83081300
C       -1.46573800      -2.74163200       2.36335400
O       -0.43862200      -2.75177700       1.54006500
O       -2.42552400      -2.00163700       2.29830100
N       -2.93881900       0.46294100      -0.09620200
C       -3.70583200      -0.76386400      -0.43982600
H       -3.28832400      -1.18528300      -1.35577000
H       -3.59634500      -1.47467000       0.37848900
H       -4.75510400      -0.49290100      -0.57753100
C       -3.33941200       1.02014800       1.22151100
H       -3.22675600       0.23550700       1.96961500
H       -2.67763400       1.85559800       1.44779800
H       -4.38116300       1.34414800       1.15950100
C       -3.02558400       1.47511300      -1.18156000
H       -2.38651900       2.31432900      -0.91137200
H       -2.66268300       1.02297000      -2.10460200
H       -4.06915100       1.78124800      -1.28637100
H       -1.94041200       0.16798100      -0.02399000
N        2.96983600      -1.23818600       0.18184000
C        3.84532100      -0.11674500      -0.24452400
H        4.17252100      -0.30367100      -1.26807100
H        3.25879700       0.80290000      -0.21074500
H        4.70510100      -0.06410300       0.42738700
C        2.46087900      -1.04566700       1.56513000
H        1.97665500      -0.06880200       1.63540600
H        1.74875400      -1.84044400       1.78736400
H        3.30824200      -1.09157400       2.25436700
C        3.62503200      -2.55589100       0.01236200
H        2.92404800      -3.33447600       0.31383900
H        3.88061700      -2.68926600      -1.03898800
H        4.52346200      -2.59439700       0.63256400
47
1sa1msa1fa2tma-3
S        0.76267700      -1.38629300      -0.43892700
O        0.03790800      -2.49515900      -1.05702900
O        0.00395000      -0.85450400       0.75709700
O        2.16897800      -1.64510300      -0.09166500
O        0.83603000      -0.16549400      -1.44987200
H       -0.09369200       0.21070300      -1.59275200
S       -2.13389800       1.75788100      -0.76167800
O       -1.08852400       2.43598100       0.03389200
O       -3.25102600       1.21907200       0.04343600
O       -1.56973800       0.72737100      -1.69182300
C       -2.83956300       3.00150600      -1.83293300
H       -3.27411700       3.78043300      -1.20578100
H       -2.04304500       3.40691100      -2.45721200
H       -3.60619400       2.52914200      -2.44741500
H        5.97581700       0.00404400      -1.57338700
H        3.53535600      -1.33935000      -0.99972100
C        5.02711400      -0.14246200      -1.03788900
O        4.39371100      -1.20295700      -1.48469400
O        4.65225600       0.60127000      -0.15285200
N        1.38695600       1.38220200       1.63582000
C        0.55103400       2.13391400       2.60408400
H       -0.26661900       2.60123300       2.05533500
H        0.15515300       1.43088700       3.33873900
H        1.17474400       2.87930000       3.10261300
C        2.46127400       0.60713300       2.31011700
H        1.99964800      -0.09460000       3.00530500
H        3.02749600       0.06651100       1.55232000
H        3.11294800       1.30311800       2.84240000
C        1.94169400       2.26747800       0.57396900
H        2.53578000       1.65611400      -0.10345300
H        1.10352600       2.72912400       0.05463800
H        2.58116100       3.01377500       1.05095500
H        0.76192600       0.67951500       1.18262300
N       -2.48995700      -2.00752400       0.69625100
C       -2.07825800      -3.38650400       1.05948400
H       -1.40481200      -3.75531500       0.28643400
H       -1.55251500      -3.35459000       2.01441100
H       -2.97036000      -4.01155600       1.14072000
C       -3.34350500      -1.38773400       1.74086700
H       -2.81224500      -1.42865600       2.69298900
H       -3.53097300      -0.35245700       1.45210700
H       -4.27751200      -1.94994000       1.81286000
C       -3.13616200      -1.96536000      -0.64452300
H       -3.40707500      -0.93201400      -0.85601300
H       -2.40953300      -2.31635900      -1.37658900
H       -4.01858900      -2.60980700      -0.62197300
H       -1.60585000      -1.44595100       0.64405700
