1sa_1b_2a_4w.log
 OpenBabel02281910093D
Gaussian kemi/andersx/programs/g09/g09 # opt freq 6-31++g(d,p) wb97xd
 33 25  0  0  0  0  0  0  0  0999 V2000
   -1.2107   -1.4651    2.9777 N   0  0  0  0  0  0  0  0  0  0  0  0
   -3.1194   -2.7141    0.5197 O   0  0  0  0  0  0  0  0  0  0  0  0
   -1.5323    0.7805    0.8467 O   0  0  0  0  0  0  0  0  0  0  0  0
   -2.0590    0.8082   -0.5476 S   0  0  0  0  0  0  0  0  0  0  0  0
   -2.0208    2.1669   -1.1186 O   0  0  0  0  0  0  0  0  0  0  0  0
   -3.3055    0.0716   -0.7135 O   0  0  0  0  0  0  0  0  0  0  0  0
   -0.9873   -0.0637   -1.4170 O   0  0  0  0  0  0  0  0  0  0  0  0
    1.5029    0.5948   -0.8459 O   0  0  0  0  0  0  0  0  0  0  0  0
    2.2143   -0.0399    0.3128 S   0  0  0  0  0  0  0  0  0  0  0  0
    3.4528   -0.8249   -0.3189 O   0  0  0  0  0  0  0  0  0  0  0  0
    1.3660   -1.0239    1.0018 O   0  0  0  0  0  0  0  0  0  0  0  0
    2.8095    0.9668    1.2043 O   0  0  0  0  0  0  0  0  0  0  0  0
    2.1005   -2.4648   -1.9893 O   0  0  0  0  0  0  0  0  0  0  0  0
    0.4286    2.4006    1.6878 N   0  0  0  0  0  0  0  0  0  0  0  0
    0.5289    3.3082   -0.8863 O   0  0  0  0  0  0  0  0  0  0  0  0
   -0.2853   -2.6200   -0.5751 O   0  0  0  0  0  0  0  0  0  0  0  0
   -0.0593    0.2173   -1.1873 H   0  0  0  0  0  0  0  0  0  0  0  0
   -0.2742   -1.8239    2.8180 H   0  0  0  0  0  0  0  0  0  0  0  0
   -1.8691   -2.1959    2.7196 H   0  0  0  0  0  0  0  0  0  0  0  0
   -1.3492   -0.7301    2.2867 H   0  0  0  0  0  0  0  0  0  0  0  0
   -2.2204   -2.9120    0.2240 H   0  0  0  0  0  0  0  0  0  0  0  0
   -3.2958   -1.8194    0.1915 H   0  0  0  0  0  0  0  0  0  0  0  0
    1.0746    2.5377   -1.1154 H   0  0  0  0  0  0  0  0  0  0  0  0
    0.4992    3.0002    0.8309 H   0  0  0  0  0  0  0  0  0  0  0  0
   -0.3823    3.0390   -1.1224 H   0  0  0  0  0  0  0  0  0  0  0  0
    3.0711   -1.5103   -0.9327 H   0  0  0  0  0  0  0  0  0  0  0  0
   -0.3409    1.7122    1.4612 H   0  0  0  0  0  0  0  0  0  0  0  0
    1.3325    1.9016    1.7847 H   0  0  0  0  0  0  0  0  0  0  0  0
   -0.7365   -1.8718   -1.0051 H   0  0  0  0  0  0  0  0  0  0  0  0
    0.1624   -2.1832    0.1745 H   0  0  0  0  0  0  0  0  0  0  0  0
    0.2016    2.9332    2.5205 H   0  0  0  0  0  0  0  0  0  0  0  0
    1.8319   -1.8619   -2.6894 H   0  0  0  0  0  0  0  0  0  0  0  0
    1.2636   -2.6921   -1.5237 H   0  0  0  0  0  0  0  0  0  0  0  0
  4  3  1  0  0  0  0
  5  4  2  0  0  0  0
  6  4  2  0  0  0  0
  7 17  1  0  0  0  0
  7  4  1  0  0  0  0
  8  9  2  0  0  0  0
  9 11  2  0  0  0  0
  9 12  1  0  0  0  0
 10  9  1  0  0  0  0
 13 33  1  0  0  0  0
 14 28  1  0  0  0  0
 14 31  1  0  0  0  0
 16 30  1  0  0  0  0
 18  1  1  0  0  0  0
 19  1  1  0  0  0  0
 20  1  1  0  0  0  0
 21  2  1  0  0  0  0
 22  2  1  0  0  0  0
 23 15  1  0  0  0  0
 24 14  1  0  0  0  0
 25 15  1  0  0  0  0
 26 10  1  0  0  0  0
 27 14  1  0  0  0  0
 29 16  1  0  0  0  0
 32 13  1  0  0  0  0
M  RAD  2   3   2  12   2
M  END
$$$$
