19
1sa1fa1ma-1
S        1.48431800      -0.35234800      -0.12385500
O        1.97328900      -1.60475200      -0.66997700
O        0.23735700      -0.42087700       0.68336300
O        2.56825400       0.12696600       0.99576500
O        1.39307800       0.77004300      -1.09359600
H        3.43621200      -0.18879800       0.71094700
H       -0.04277400       1.51292800      -0.88886500
H       -3.76365200      -1.88580000      -0.06077100
H       -1.00260500      -1.40238400       0.51123500
C       -2.85310800      -1.27688600      -0.00565200
O       -1.84208100      -1.95397300       0.45235000
O       -2.85444400      -0.10066300      -0.34857200
N       -0.97667800       1.90592600      -0.58214400
H       -1.33304900       2.53227600      -1.30033800
C       -0.82122000       2.58874200       0.72413900
H       -1.78462800       2.97927500       1.05194200
H       -0.45110100       1.84920100       1.43332100
H       -0.09717500       3.39704100       0.62442900
H       -1.63122600       1.09724400      -0.49080800
19
1sa1fa1ma-2
S        1.55951100      -0.13178800      -0.05697300
O        2.79861500      -0.32941200      -0.78262600
O        1.49556200       1.10051700       0.76848500
O        0.30023800      -0.27239800      -0.83665800
O        1.44043100      -1.37417100       1.00064200
H        2.33305900      -1.70952600       1.15699900
H       -3.46013900      -2.17396200       0.14108400
H       -0.83520500      -1.36832400      -0.65829900
C       -2.62326100      -1.47134400       0.04640600
O       -1.61251700      -2.00272200      -0.57514100
O       -2.69564900      -0.33264200       0.49247900
N       -1.05691000       1.88361200       0.59145000
H       -1.40881200       2.45440800       1.35669700
H       -0.04447700       1.63213500       0.77352000
C       -1.17249900       2.57217800      -0.71589800
H       -0.76836100       1.89873900      -1.47081300
H       -2.22064400       2.78781500      -0.92304800
H       -0.59145200       3.49375600      -0.69265600
H       -1.59665300       0.98990000       0.56743700
19
1sa1fa1ma-3
S       -1.61635800       0.12636800      -0.06744400
O       -0.52556000      -0.45460200      -0.89730400
O       -2.95660000       0.05575800      -0.61553900
O       -1.60259400      -0.85345600       1.24163100
O       -1.20073200       1.46222800       0.43040300
H       -2.51483800      -0.94082200       1.54802100
H        0.37047100       1.64306300       0.02808800
H        2.87716700      -2.80237100       0.38939200
H        0.39515800      -1.69546700      -0.50218900
C        2.19227500      -1.98993900       0.11831200
O        1.03780700      -2.43726200      -0.27788500
O        2.53717300      -0.81676000       0.19805700
N        1.35381600       1.60649900      -0.36197100
H        1.71436600       0.64337300      -0.17721200
C        2.24145600       2.63797900       0.21249100
H        3.23193100       2.56157400      -0.23574000
H        1.81969200       3.62600100       0.02908500
H        2.31607900       2.46764300       1.28578400
H        1.25665600       1.69413100      -1.37203800
