37
2msa1nta2ma-2
N       -0.49863300      -0.19964600       2.26062700
H       -0.65402800       0.75070900       1.89502400
C       -0.83133100      -0.30194200       3.69405500
H       -1.89007600      -0.07947200       3.82392100
H       -0.63013900      -1.31825700       4.03216500
H       -0.22556700       0.40205300       4.26479300
H       -1.08932600      -0.85811700       1.69078600
N       -0.41736300      -1.77060500      -1.67702200
H        0.59510200      -1.62526500      -1.48737300
C       -0.68493600      -2.84102000      -2.65537200
H       -0.27253200      -3.77528700      -2.27493400
H       -1.76358900      -2.93843200      -2.77595400
H       -0.21459800      -2.59679200      -3.60801200
H       -0.90935500      -1.95779500      -0.76584000
N       -2.91375600      -1.29205500       0.26536700
O       -1.82461600      -1.90123000       0.62697000
O       -3.45960300      -0.54811100       1.08026100
O       -3.33140500      -1.48179400      -0.87928300
H       -0.78526800      -0.86325900      -1.97238300
S       -0.51791700       2.18206400      -0.52159000
O       -0.61094700       2.35374300       0.93057300
O       -0.97575600       0.89371500      -1.03865700
O        0.92888200       2.49222000      -1.02612700
H        1.61923800       1.84386800      -0.60216900
C       -1.41088500       3.48788500      -1.31935900
H       -2.46125100       3.34788400      -1.06187000
H       -1.03673600       4.43907100      -0.94211700
H       -1.25913600       3.39830900      -2.39450300
S        2.65793200      -0.51536000       0.11905100
O        2.59113000       0.97880300       0.08244100
O        2.23390000      -1.13891400      -1.15750800
O        1.96708400      -1.07648700       1.30362800
H        0.48521300      -0.45144200       2.04899300
C        4.38774200      -0.88690400       0.31360900
H        4.73556200      -0.41040500       1.22996900
H        4.49486100      -1.96989800       0.37504100
H        4.91673600      -0.49226600      -0.55369900
37
2msa1nta2ma-3
N       -0.07966900       2.25293600       0.02699400
H        0.82107900       2.28404300      -0.49560700
H       -0.79665500       1.83611600      -0.60206500
C       -0.52352900       3.55965800       0.54722600
H       -1.47120000       3.42501500       1.06808700
H        0.22500800       3.94583500       1.23862900
H       -0.65241400       4.25265400      -0.28376500
H        0.06454800       1.58194900       0.79238800
N        0.31219900      -2.15739100      -0.96645000
H        0.86155900      -1.98457700      -1.81585800
H        0.70198300      -1.44881700      -0.30390600
C        0.46513900      -3.52916900      -0.44329800
H       -0.07798600      -3.60076700       0.49822400
H        0.06365600      -4.24325800      -1.16208800
H        1.52265300      -3.72829200      -0.27078700
H       -0.68672600      -1.91001200      -1.12893300
N        0.29262500      -0.46144200       2.63690300
O        0.10615700       0.74752200       2.61998900
O        1.15845600      -1.05454000       3.22291900
O       -0.56501200      -1.22903900       1.93498200
H       -1.27507200      -0.61782500       1.52451500
S        2.52981600       0.33459200      -0.93194000
O        2.31132700       1.75873200      -1.28648600
O        2.45415700      -0.61282000      -2.06223200
O        1.61496200      -0.07761700       0.18724700
C        4.18334400       0.23135600      -0.27351200
H        4.87559800       0.54618300      -1.05477500
H        4.24900600       0.89208200       0.59088400
H        4.37270400      -0.80238000       0.01570500
S       -2.68253900      -0.03534100      -0.64216000
O       -2.33713100      -1.40514100      -1.09329600
O       -2.09345500       1.03709700      -1.47802800
O       -2.36465100       0.17933900       0.80698000
C       -4.45041600       0.10522000      -0.78032400
H       -4.74055000       1.09741100      -0.43504500
H       -4.71393700      -0.03339100      -1.82886400
H       -4.90148400      -0.66938100      -0.16039000
37
2msa1nta2ma-4
N       -0.30634600      -2.32573200      -0.99999800
H       -0.75214000      -1.65353000      -1.62566900
C       -0.35422000      -3.69980400      -1.53201600
H        0.19641100      -3.74708500      -2.47147000
H        0.10324600      -4.37534800      -0.80971000
H       -1.39590200      -3.97867500      -1.69040800
H        0.66674000      -1.98081900      -0.83224800
N       -0.53044000       0.30730900       2.27904700
H       -1.15025700      -0.44396100       1.89769200
C       -0.55827000       0.34653600       3.75284100
H       -0.19898200      -0.60588100       4.14212400
H        0.08792500       1.15006400       4.10591700
H       -1.58160600       0.51604000       4.08725700
H        0.42970300       0.14496200       1.90922700
N       -2.83700400      -1.01003300       0.30994800
O       -3.09706600      -1.44819900      -0.81735800
O       -3.30327200       0.04745700       0.74287900
O       -2.01694400      -1.67424500       1.05329300
H       -0.86600000      -2.23324000      -0.12182200
S        2.68983300      -0.19614900       0.03882700
O        2.25957400      -1.42815100      -0.67126200
O        2.06134500      -0.04829600       1.37466400
O        2.58758300       1.03226800      -0.80000200
H        1.38308700       1.81435100      -1.30631800
C        4.43589100      -0.38979300       0.33298600
H        4.92935000      -0.50381200      -0.63207000
H        4.79294200       0.50204300       0.84768500
H        4.57768900      -1.27792300       0.94879100
S       -0.67914500       1.79694000      -0.79233700
O        0.54703700       2.32762300      -1.61275100
O       -0.81325400       2.52184300       0.47128400
O       -0.57749900       0.34098200      -0.68773600
H       -0.84486500       1.19204800       1.85925600
C       -2.04069100       2.21654800      -1.84028200
H       -1.88984100       1.74344000      -2.80989200
H       -2.92485900       1.81124200      -1.34241000
H       -2.09340100       3.30145600      -1.92800300
