39
1sa1msa1dma1tma-03
S        0.81081800      -1.77588600      -0.68142100
O        0.70404700      -0.97046800       0.58430400
O        0.72653100      -0.69210300      -1.86247900
O        2.10953000      -2.40598200      -0.86577500
O       -0.37680500      -2.65077800      -0.79867700
H       -1.56694300      -1.84190500       0.10406500
S       -1.34643800       1.81583400      -0.23598200
O       -0.00545800       2.40203600      -0.05652200
O       -1.94998500       1.29125100       1.02184100
O       -1.41178100       0.79430100      -1.32469000
H       -0.07931400      -0.12167400      -1.72480500
C       -2.41118900       3.14697100      -0.76789000
H       -2.41972800       3.90581800       0.01474600
H       -2.00694100       3.55404600      -1.69493900
H       -3.41198000       2.74540200      -0.92715200
N       -2.25920000      -1.42252700       0.76781900
C       -2.07783900      -2.07557600       2.07796100
C       -3.61129700      -1.53657800       0.19131800
H       -2.02517900      -0.40683100       0.86025500
H       -2.29185100      -3.14133900       1.98257500
H       -1.03869500      -1.93288900       2.37402000
H       -2.74841400      -1.61908000       2.80805400
H       -3.84668200      -2.58913000       0.02512800
H       -4.33589700      -1.09221100       0.87579800
H       -3.61799800      -0.99903400      -0.75706300
N        2.69275700       0.78990100       0.64151200
C        2.89384300       1.39405900      -0.70162400
H        2.94242100       0.59152300      -1.43745100
H        2.03534800       2.03008000      -0.91567500
H        3.82358300       1.96884900      -0.69180300
C        2.51788800       1.82199000       1.69078800
H        1.65386500       2.43066300       1.42313900
H        2.33808200       1.32304300       2.64389900
H        3.42655600       2.42622000       1.75193600
C        3.76901400      -0.17758700       0.96943400
H        3.56186600      -0.61451400       1.94668000
H        3.76015200      -0.97004300       0.21924600
H        4.72909700       0.34372300       0.98393400
H        1.80251500       0.21277000       0.60462400
39
1sa1msa1dma1tma-01
S       -0.26229300      -1.92927300      -0.62194300
O       -1.54965600      -2.37181500      -1.15404800
O        0.45467500      -0.99647100      -1.71293600
O       -0.42199700      -1.04754100       0.58496200
O        0.74421400      -2.97717900      -0.37297500
H        2.01531000      -1.91430200       0.24815400
S        0.72408400       2.19177700      -0.19196100
O        1.95372300       1.42028200       0.14460600
O       -0.11187500       2.53229800       0.97003800
O       -0.05019700       1.54918200      -1.29976500
H        0.20864800      -0.03480400      -1.58684700
C        1.31946300       3.73283100      -0.87058900
H        0.45551100       4.33379900      -1.15573700
H        1.90154700       4.23874500      -0.10001800
H        1.93705400       3.50936600      -1.74059800
N        2.57732200      -1.13762500       0.65857300
C        3.94937400      -1.16483600       0.11786900
C        2.48304200      -1.21081500       2.13057700
H        2.13297800      -0.23427400       0.36369300
H        4.44135800      -2.09334800       0.41231400
H        3.88890200      -1.10378900      -0.96861100
H        4.49993200      -0.30548800       0.50285600
H        2.94861600      -2.13332600       2.48146400
H        2.98338600      -0.34265500       2.56167600
H        1.42437800      -1.19778000       2.38879400
N       -2.80745100       0.11832000       0.57014600
C       -3.03134000       0.64142500      -0.80240200
H       -2.27048000       1.39460400      -1.01058600
H       -2.91838300      -0.18692200      -1.50328300
H       -4.03832200       1.06206700      -0.86159200
C       -3.69638300      -1.03083800       0.86596000
H       -3.49534700      -1.81197500       0.13167900
H       -3.46712200      -1.40401700       1.86471000
H       -4.73733700      -0.70167900       0.81786800
C       -2.90209400       1.18953500       1.59082700
H       -2.71206300       0.75247700       2.57196400
H       -2.13733900       1.93832500       1.37551100
H       -3.90591500       1.62088900       1.56253200
H       -1.81655500      -0.26469800       0.59298200
39
1sa1msa1dma1tma-02
S        1.00300400       1.79972100      -0.57063800
O        2.37939200       2.20091900      -0.82290900
O        0.65213500       0.80935500      -1.78879200
O        0.83816100       0.95058800       0.65884900
O       -0.00962100       2.87773300      -0.56750900
H        1.83712000      -0.30902100       0.59697700
H       -1.39133800       2.28196100       0.28658900
S       -1.55182500      -1.74568100      -0.23741900
O       -2.15479000      -1.52802700       1.08861500
O       -0.21331000      -2.36563000      -0.23549300
O       -1.58465700      -0.46707500      -1.04667900
H       -0.17273600       0.29733500      -1.57375300
C       -2.61945100      -2.86240300      -1.13402400
H       -2.65561800      -3.80435500      -0.58595000
H       -3.61141400      -2.41507100      -1.19759500
H       -2.19858400      -3.01167800      -2.12848800
N       -2.13241800       1.64709900       0.66207300
C       -3.46948400       2.12459800       0.26409600
C       -1.95019000       1.45753100       2.11679000
H       -1.94595700       0.74928800       0.16470100
H       -3.66260000       3.09329400       0.72773800
H       -3.49663200       2.22201100      -0.82128200
H       -4.21677800       1.39914500       0.58876900
H       -2.15430100       2.40159100       2.62559800
H       -2.62461400       0.67197600       2.45681300
H       -0.91725200       1.15317100       2.27764800
N        2.65220000      -0.98840900       0.57317600
C        3.84067400      -0.18839600       0.95818800
H        3.92261500       0.65361900       0.26886200
H        3.69420400       0.19215900       1.96953700
H        4.72995800      -0.82198400       0.91774300
C        2.35823600      -2.07476900       1.53843200
H        2.24002000      -1.63561300       2.52996200
H        1.42833300      -2.55540500       1.23185500
H        3.18838600      -2.78553600       1.54117100
C        2.76347400      -1.49703900      -0.81937600
H        1.82708000      -1.99505000      -1.06991000
H        2.91748800      -0.64757800      -1.48504500
H        3.60723800      -2.18979200      -0.87306900
