33
1dma1msa2sa
S        0.08576300      -1.52635800       0.73882300
O       -0.25109500      -0.59241500       1.80799000
O       -0.00446100      -0.82327100      -0.61285900
O        1.34834400      -2.25186400       0.85038700
O       -1.03145900      -2.66084200       0.69543000
H       -1.91147100      -2.23144500       0.76680400
S        3.26279200       0.19329900      -0.61856700
O        2.46917200       0.97330000       0.33399100
O        4.44277700       0.76531900      -1.19428400
O        3.66519100      -1.16663000       0.06493500
O        2.30019700      -0.23694600      -1.79969300
H        2.86207400      -1.61128500       0.45014500
H        1.41664300      -0.51428300      -1.43023700
S       -3.17126400       0.10645700      -0.45406400
O       -2.69395600       1.35881500       0.13795200
O       -3.31891200      -1.03833200       0.44268900
O       -2.25937900      -0.28204600      -1.67760100
H       -1.33956500      -0.55196900      -1.32316000
C       -4.70407000       0.40176900      -1.28830700
H       -5.42461200       0.69721900      -0.52523800
H       -4.55373200       1.20051700      -2.01393200
H       -5.00919800      -0.52468900      -1.77378900
N       -0.01409900       2.02600600       0.86609100
C        0.07805800       3.07817300      -0.16865900
C        0.15693200       2.50793000       2.25536200
H       -0.92043800       1.54358100       0.77894600
H        1.06371600       3.54006700      -0.11221500
H       -0.05461500       2.61312100      -1.14512000
H       -0.70563600       3.81736200      -0.00035600
H        1.14285000       2.96430200       2.34742800
H       -0.62274400       3.23712900       2.47875800
H        0.07892500       1.64822800       2.91940500
H        0.72296300       1.32780000       0.67896600
33
1dma1msa2sa-1
S        0.11306100      -1.46485700      -0.07137800
O        0.54683300      -0.62540100       1.07385200
O       -0.66416400      -0.62538900      -1.03154300
O        1.19039800      -2.23461300      -0.68732800
O       -0.89886200      -2.55507400       0.49328100
H       -1.67891200      -2.09302200       0.87348700
S        3.62838800       0.19605700      -0.01828000
O        4.97166800       0.67994200       0.08743300
O        2.60664900       1.03347900      -0.65530100
O        3.67176900      -1.18899800      -0.76734700
O        3.11737900      -0.16265200       1.43412500
H        2.76602800      -1.59651400      -0.82752700
H        2.14785600      -0.40141200       1.40199100
S       -3.45092800       0.07470100       0.10014900
O       -2.81121000       1.38372600       0.20141900
O       -3.09344900      -0.92122100       1.11197400
O       -3.22336700      -0.53000700      -1.34609300
H       -2.23707900      -0.70591500      -1.42810900
C       -5.21083900       0.26623800       0.06391100
H       -5.46510400       0.95247900      -0.74323100
H       -5.65866600      -0.71500900      -0.08991800
H       -5.49978600       0.67838400       1.03118000
N        0.07021400       1.98690500      -0.09137400
C       -0.02025500       2.55881700       1.26956400
C       -0.17222500       2.95422800      -1.18263600
H        1.00551800       1.55647600      -0.22402000
H       -1.01532700       2.98146300       1.40682600
H        0.14325400       1.75431700       1.98536400
H        0.74563900       3.32741500       1.38083300
H       -1.17497000       3.36730700      -1.07104600
H        0.57704700       3.74465300      -1.12954300
H       -0.08548900       2.42876900      -2.13331500
H       -0.59909500       1.21183400      -0.18199900
33
1dma1msa2sa-4
S       -3.09248800       0.36580100       0.08388100
O       -2.64519000       1.47617800       0.92615800
O       -2.30323400       0.26853000      -1.17736800
O       -3.23171200      -0.94538200       0.74559000
O       -4.58337800       0.79617500      -0.34283700
H       -5.03802900       0.02364700      -0.70721100
S       -0.08948900      -1.99766400       0.02655100
O        1.00338700      -2.92323100      -0.09190300
O        0.15307400      -0.73500500       0.74977400
O       -0.59738800      -1.64520000      -1.41076900
O       -1.29183100      -2.72352900       0.71745400
H       -1.28554200      -0.90169300      -1.37884900
H       -2.06020300      -2.08506900       0.82207000
S        3.30005600       0.35488100      -0.04948300
O        4.39877300       1.25436400       0.21971000
O        2.20849700       0.80007300      -0.92045000
O        2.66773200      -0.03307400       1.36507600
H        1.75422500      -0.39560800       1.23632400
C        3.90959500      -1.19669000      -0.66014900
H        4.34511200      -1.00645800      -1.64171100
H        4.66733600      -1.55244700       0.03785300
H        3.07529600      -1.89785800      -0.72709900
N       -0.08691100       2.13198000       0.04229900
C        0.69624100       2.85007400       1.07335100
C       -0.27668600       2.88709600      -1.21761500
H        0.40132300       1.25448800      -0.18126100
H        0.16474200       3.76143500       1.34895100
H        0.80292900       2.20312200       1.94371000
H        1.68010000       3.08875500       0.66868000
H       -0.76411400       3.83607900      -0.99156500
H        0.69922500       3.05310800      -1.67405100
H       -0.91025900       2.29006100      -1.87299500
H       -1.01775600       1.87419700       0.42883900
