31
2sa1ma1dma-01
S       -1.96409500       0.81701500      -0.42174200
O       -1.30445900       2.04474000      -0.92204300
O       -3.41006200       0.77845700      -0.46192600
O       -1.50347500      -0.38643500      -1.40343500
O       -1.36698000       0.45202400       0.91088800
H       -1.42678600      -1.10260700       1.24316500
S        1.80656300      -1.18943000      -0.15829100
O        1.09343900      -2.45494700       0.11200600
O        2.06012600      -0.35800200       1.02502400
O        3.29580000      -1.62112700      -0.62772700
O        1.22204200      -0.43071300      -1.28607500
H        3.21471400      -2.25091100      -1.35719000
H       -0.51864200      -0.39093100      -1.47283200
N       -1.36483900      -2.16478200       1.30276600
H       -0.44090900      -2.39881400       0.87803700
C       -2.48626000      -2.78715700       0.55786200
H       -2.39046300      -3.87245900       0.58942000
H       -3.42968400      -2.47253100       1.00303900
H       -2.43775800      -2.42736800      -0.46932600
H       -1.35113800      -2.44297400       2.28106600
N        1.04470700       2.19363500       0.43661300
C        0.70998700       2.97064300       1.64676200
C        2.15270900       2.73770600      -0.37354500
H        1.29098900       1.22421500       0.71308600
H        0.44411900       3.98843600       1.35758300
H       -0.14225800       2.48807500       2.12511000
H        1.56884600       2.98352500       2.31987900
H        1.88539500       3.73510600      -0.72569700
H        3.05814000       2.78191900       0.23375500
H        2.30819000       2.06969200      -1.22067400
H        0.17861000       2.12515000      -0.15371400
31
2sa1ma1dma-02
S        2.18030700      -0.11597900      -0.38119100
O        2.14019300       1.35924500      -0.40629300
O        2.01044800      -0.71024000       0.95395200
O        1.31138200      -0.73629600      -1.40328400
O        3.69954900      -0.52315200      -0.76756000
H        3.91346900      -0.12825900      -1.62422800
S       -2.08882200      -0.36151400      -0.54166300
O       -1.41014700      -0.03947700       0.76064200
O       -3.39979700       0.22930300      -0.70122400
O       -1.17300700       0.37657600      -1.65587700
O       -1.96962600      -1.81699600      -0.79936100
H       -0.28530300      -0.05414200      -1.68319200
H       -0.68370900      -2.38339900       0.05591400
N        0.03980400      -2.68244800       0.76632500
H        0.49810500      -3.52686600       0.43129000
C       -0.61858000      -2.87743100       2.07796000
H        0.12670800      -3.14067600       2.82842300
H       -1.10414800      -1.93593900       2.33243400
H       -1.36761900      -3.66432500       1.99245700
H        0.75928000      -1.93111300       0.82722700
N       -0.19521800       2.33248600       0.69309800
C        0.16451100       2.78635000       2.05054000
C       -1.03272800       3.27227100      -0.08234800
H        0.67697300       2.10366600       0.17598000
H       -0.74609700       2.91662900       2.63712900
H        0.79875000       2.02744000       2.50924400
H        0.70680300       3.73130100       1.98881300
H       -1.97676700       3.42389900       0.44287900
H       -0.50753400       4.22210800      -0.19624600
H       -1.23036700       2.82295900      -1.05552900
H       -0.70558500       1.40748700       0.76222400
31
2sa1ma1dma-04
S        2.19852700       0.43247300      -0.19657800
O        1.63215500       1.78889000      -0.05950200
O        2.48519800      -0.24444000       1.07611600
O        1.45779300      -0.40193400      -1.16392400
O        3.67810100       0.63683900      -0.82350500
H        3.58828100       1.08441400      -1.67592100
S       -2.07415100      -0.88385400      -0.33214900
O       -3.09911400      -1.89797800      -0.22195300
O       -2.51520700       0.44513300      -0.82428200
O       -1.23499000      -0.68851100       0.90155300
O       -1.03476500      -1.46473600      -1.42169600
H       -0.10859000      -1.77349100       1.20251000
H       -0.20648000      -0.93380700      -1.40520700
N        0.76408800      -2.35496700       1.38425000
H        1.54284300      -1.66141000       1.36011100
C        0.94256300      -3.40152000       0.34863300
H        1.80559600      -4.01854300       0.59939100
H        0.03889800      -4.00745800       0.29162000
H        1.10399500      -2.90175400      -0.60465000
H        0.69541700      -2.75211600       2.31819400
N       -1.02629400       2.36704100       0.31261400
C       -1.23960200       3.63825500      -0.40578800
C       -1.33692800       2.41832600       1.75626800
H       -1.61184200       1.61120500      -0.13450100
H       -0.58721500       4.40676900       0.01184700
H       -1.00306100       3.48676800      -1.45880200
H       -2.28428200       3.93623000      -0.30546100
H       -0.67514200       3.13594400       2.24409400
H       -2.37861200       2.71577500       1.88698300
H       -1.18965100       1.41860200       2.16354300
H       -0.03430200       2.07397600       0.19070100
