32
2msa1am1dma-01
S        2.56739700      -0.41666900      -0.08469600
O        1.81192400      -0.51577800       1.18642900
O        2.35012400       0.88896700      -0.76865600
O        2.31901500      -1.58701000      -0.97314300
C        4.30490400      -0.46517900       0.31327100
H        4.52818200       0.37397600       0.97226300
H        4.51324400      -1.41250500       0.81061500
H        4.86699400      -0.38639000      -0.61739900
S       -2.56831500      -0.41633600      -0.08181900
O       -2.34860500       0.88857600      -0.76656000
O       -1.82701000      -0.51163700       1.19711100
O       -2.30585900      -1.58706700      -0.96660300
C       -4.31028200      -0.47112600       0.29518000
H       -4.54477200       0.36845000       0.94973800
H       -4.86157700      -0.39639100      -0.64224800
H       -4.52068100      -1.41827000       0.79199900
N        0.00548400      -2.54765700       0.10273500
H        0.87164700      -2.33514500      -0.44880000
H       -0.86707100      -2.32178500      -0.43559200
H        0.00029700      -3.51027600       0.42507400
H        0.02082800      -1.90357100       0.90356300
N        0.00043000       2.09388400      -0.09206100
C        0.00297000       3.38610300      -0.80393800
C       -0.00280500       2.20810100       1.38270700
H       -0.85079200       1.55604200      -0.38345200
H        0.89709400       3.94782000      -0.52868100
H        0.00673700       3.19447400      -1.87687500
H       -0.89292700       3.94792500      -0.53474300
H        0.89493300       2.74142900       1.69951700
H       -0.89903700       2.74661700       1.69501600
H       -0.00707900       1.20141300       1.79815500
H        0.85183900       1.55489000      -0.38057300
32
2msa1am1dma-03
S        2.64488200      -0.40818000      -0.13343200
O        2.76476500       0.59143600      -1.20098100
O        2.39869200      -1.80328200      -0.59970100
O        1.62260900      -0.02077200       0.89922100
C        4.20844600      -0.45989600       0.72553500
H        4.97335400      -0.75464000       0.00678400
H        4.41509600       0.53528400       1.11956700
H        4.13823300      -1.18902500       1.53266600
S       -2.61200700      -0.40130500      -0.14535200
O       -2.32227600      -1.65416700      -0.89367100
O       -2.36321400       0.83159600      -0.94121500
O       -1.90935000      -0.36254700       1.16480100
C       -4.36307400      -0.42128200       0.18828600
H       -4.88745300      -0.45051000      -0.76695300
H       -4.58838300      -1.30975800       0.77828500
H       -4.61637400       0.48449800       0.73938000
N       -0.03539600      -2.43753300       0.38521300
H        0.89714300      -2.31045600      -0.08819900
H       -0.14196000      -1.66784400       1.05770200
H       -0.84087700      -2.32482500      -0.27181700
H       -0.08733900      -3.33205900       0.86281200
N       -0.06569200       1.96647700       0.04639300
C       -0.55724500       2.60898500       1.28263400
C        0.60918100       2.87985800      -0.89879300
H        0.58879100       1.19526400       0.32038600
H       -1.26053100       3.40103000       1.01958700
H       -1.06061400       1.84442100       1.87494400
H        0.28913100       3.02490900       1.83145500
H       -0.10901600       3.62209500      -1.25131900
H        1.44177200       3.36946000      -0.39175800
H        1.00259000       2.29180200      -1.72676700
H       -0.88560300       1.51539000      -0.42105000
32
2msa1am1dma-02
S        2.76721000      -0.30610000      -0.14905000
O        2.54649900       1.06289000      -0.68979400
O        2.54356700      -1.39085300      -1.12262500
O        1.97472600      -0.52496400       1.10773200
C        4.48376300      -0.36121900       0.32960000
H        5.08477400      -0.19131300      -0.56389600
H        4.66019100       0.42021500       1.06868500
H        4.68815600      -1.34550500       0.75098100
S       -2.71627000      -0.42214800       0.09150800
O       -2.95933900       0.87811600       0.73246900
O       -2.57155000      -1.58357400       0.98922400
O       -1.52211500      -0.33709100      -0.84845400
C       -4.11096800      -0.75551100      -0.97081200
H       -4.99992700      -0.80685900      -0.34137200
H       -4.19771600       0.05683300      -1.69237200
H       -3.94410400      -1.70656200      -1.47646600
N        0.11599800      -2.26216400       0.14880400
H        0.68445100      -2.86017400      -0.44746400
H       -0.55636200      -2.76612300       0.72629500
H        0.77787300      -1.68350200       0.72093400
H       -0.44287700      -1.58887900      -0.42788900
N       -0.00977100       1.86225100      -0.09284000
C       -0.58605300       3.00442000      -0.82876800
C       -0.04076300       2.01769200       1.38097200
H       -0.55613600       1.01223300      -0.35699000
H       -0.03392900       3.91231800      -0.58045500
H       -0.51020000       2.80764500      -1.89825900
H       -1.63397600       3.10718800      -0.54298000
H        0.48503000       2.93613700       1.64811800
H       -1.08183600       2.04872700       1.70354800
H        0.47328600       1.15984900       1.81522300
H        0.97449000       1.67065000      -0.39109000
