35
3sa1am1dma-7
S        2.94949200       0.01081900      -0.06809400
O        2.60683800       0.56977300      -1.37539500
O        4.31367800      -0.00031100       0.36994700
O        2.06205200       0.75938700       1.01665700
O        2.41974200      -1.46867000       0.02394400
H        1.45018200      -1.49891400      -0.23320200
H        1.40246700       1.38201400       0.59319900
S       -1.18389400       2.20709900       0.17815200
O       -1.85107600       1.57055400      -0.99058700
O       -1.59944300       1.61993300       1.45991400
O        0.26567200       2.34506000      -0.02174000
O       -1.67954700       3.73930100       0.19029500
H       -2.62760300       3.75982100       0.38344900
S       -1.23287800      -1.88819500      -1.07393700
O       -0.10842700      -1.16983000      -0.34323900
O       -1.06830600      -1.68691000      -2.52357300
O       -1.45739600      -3.23416400      -0.59727300
O       -2.53277100      -1.06237100      -0.60761400
H       -2.39561600      -0.10176200      -0.78665700
N        0.19956600       0.72427800      -2.78911900
H        1.07836900       0.69832800      -2.23695000
H       -0.50524600       1.26999800      -2.26716700
H        0.37110500       1.13089500      -3.70411800
H       -0.18692700      -0.24464300      -2.86641500
C        0.42526300      -1.04081200       3.25327400
N       -0.70041600      -0.87436800       2.30655000
C       -1.88826000      -1.71231000       2.60042400
H       -0.98824700       0.11672300       2.23816600
H        0.74704600      -2.08275700       3.23664400
H        1.24484100      -0.39755000       2.93447100
H        0.09371000      -0.76952400       4.25648300
H       -1.60090100      -2.76253300       2.54432800
H       -2.25895400      -1.47059800       3.59740900
H       -2.64709900      -1.50697100       1.84570000
H       -0.38485000      -1.08274400       1.33183600
35
3sa1am1dma-17
S       -3.95546500       0.33901400      -0.16770400
O       -3.19059600       0.90512300       0.94460300
O       -5.27751900       0.81794700      -0.43309900
O       -3.10053400       0.52049000      -1.49034200
O       -4.03362800      -1.22148000       0.02211300
H       -3.12604600      -1.61159300       0.14519200
H       -2.15577800       0.28574000      -1.32454500
S        2.26826800       1.84834600      -0.09909600
O        1.21523100       2.63089000       0.57107700
O        3.18682500       1.12695000       0.78976200
O        1.73195600       0.98104300      -1.18160100
O        3.22701800       2.92405500      -0.82532500
H        2.67609000       3.54802800      -1.31860400
H        0.27762400       0.29552000      -1.01237100
S       -0.23650700      -1.56777300       0.01254500
O       -1.55875500      -2.16785400       0.18918200
O        0.69546800      -2.32538400      -0.83561900
O       -0.57291800      -0.18484300      -0.78486200
O        0.41520800      -1.12542500       1.27075900
N       -0.68359900       1.26993700       2.04722300
H       -1.61702000       1.24476900       1.59711500
H       -0.04217200       1.91014300       1.53666200
H       -0.77094600       1.54768300       3.02048300
H       -0.27518100       0.31392100       1.96259100
C        4.20041500      -1.48871300      -1.13114900
N        3.22149500      -1.53662700      -0.02426700
C        3.55728300      -2.47106300       1.07106500
H        3.12546500      -0.57603700       0.36261200
H        4.27705600      -2.47665500      -1.58711400
H        3.84639700      -0.76342600      -1.86370600
H        5.16969000      -1.17719000      -0.73986800
H        3.63965400      -3.48117500       0.66777700
H        4.50183500      -2.16915200       1.52564300
H        2.75262100      -2.42985500       1.80501000
H        2.28646600      -1.80071500      -0.40215700
35
3sa1am1dma-8
S       -2.98760200      -0.43709300      -0.37675100
O       -2.92342700       0.21364100       0.93406600
O       -4.25475400      -0.82761500      -0.92000800
O       -2.26093200       0.49755800      -1.42255300
O       -2.07252700      -1.72181200      -0.34436200
H       -1.19245000      -1.48884900       0.08414700
H       -1.65904800       1.16084700      -0.97605700
S        0.76118700       2.24474500      -0.23736700
O        1.37902000       1.42973300      -1.29378900
O       -0.71371200       2.28267500      -0.29507200
O        1.27103800       1.97011700       1.12646400
O        1.25520800       3.76123100      -0.47481200
H        0.89823800       4.07631100      -1.31718900
S        1.23391800      -1.43869600       1.38026500
O        0.13983200      -0.80796800       0.56389000
O        0.89102100      -1.42616700       2.80628600
O        1.69333100      -2.69623800       0.79105000
O        2.48763200      -0.45516600       1.15076200
H        2.18697400       0.48189500       1.23191800
N       -0.84181800       0.83419700       2.68168000
H       -1.22979200       1.31460500       3.48867000
H       -1.59590300       0.59669100       2.00445600
H       -0.14648900       1.42834100       2.19560900
H       -0.35048800      -0.03620900       2.95967700
C        3.10538000      -1.19834200      -2.35664300
N        1.74821200      -1.28838000      -1.77452000
C        0.67509400      -1.63728800      -2.73482000
H        1.75491400      -1.96873100      -0.99437300
H        3.11150900      -0.41552700      -3.11540700
H        3.80051300      -0.94534200      -1.55652200
H        3.37339500      -2.15841900      -2.79931800
H        0.63171200      -0.86771900      -3.50585500
H        0.89237000      -2.60900000      -3.17973700
H       -0.27339700      -1.67248400      -2.19907700
H        1.51643100      -0.36656700      -1.35600500
