37
1sa1msa1fa1eda1am-1
S        1.47869100      -1.57611600       0.51551100
O        0.85430500      -0.59166700       1.46990400
O        1.06638400      -1.04742800      -0.94702500
O        2.94061300      -1.48430600       0.50325600
O        0.89693100      -2.90675700       0.70014000
H       -1.17518800      -2.58969300       1.30971900
S       -2.52531900      -0.23133100      -0.96072000
O       -1.90562200       1.06768700      -1.30541200
O       -3.19409300      -0.22372500       0.37695500
O       -1.58280200      -1.37952500      -1.06828600
H        0.09681400      -1.20657200      -1.09165700
C       -3.80718900      -0.51441000      -2.16281900
H       -4.53112000       0.29680100      -2.08535200
H       -3.34200700      -0.52620500      -3.14846600
H       -4.27499300      -1.47429800      -1.94466200
H        4.90400100       1.79519500      -1.84062700
H        3.80634800      -0.44526600      -0.43502600
C        4.13579300       1.28940000      -1.24117100
O        4.47246800       0.05643700      -0.98722200
O        3.12133400       1.86743000      -0.88528600
H        0.86024500       3.11976600       1.59374100
H        0.35344300       3.84985500       0.05535200
H       -1.47616300       3.94561100       1.76100800
H       -1.93018700       3.01580100       0.33235600
H       -1.73275600       2.04895300       2.99108600
H       -2.35983200       1.31051100       1.64928800
H        1.42499700       1.75221400      -0.36331200
H        0.47774100       0.96363300       0.74207100
C        0.17086100       3.02724800       0.75124000
C       -1.28491200       3.01380000       1.21614200
N        0.48395900       1.75367100       0.06485400
N       -1.56607100       1.82571200       2.01900000
H       -0.23576400       1.52947500      -0.64209800
N       -1.49896600      -1.80965000       1.89322500
H       -1.77072600      -2.13992200       2.81392700
H       -2.26846600      -1.29631300       1.40942400
H       -0.65624500      -1.17992100       1.94046900
37
1sa1msa1fa1eda1am-2
S        0.78157100      -1.96182300      -0.49204100
O        0.58115600      -1.25926000       0.81568500
O        0.30617200      -0.92127900      -1.60817800
O        2.18907900      -2.20420000      -0.81278900
O       -0.08973500      -3.14965400      -0.58377400
H       -1.31767600      -3.06683400       0.64828500
S       -2.92291600       0.51431500       0.05957500
O       -2.28061900       1.55803100       0.89677700
O       -3.38362100      -0.66106300       0.85087900
O       -2.09237600       0.12848000      -1.11041400
H       -0.62779100      -0.63497400      -1.43239100
C       -4.40599500       1.24027600      -0.60673400
H       -5.04391700       1.53138900       0.22775900
H       -4.12080600       2.11060100      -1.19788300
H       -4.89751800       0.49373400      -1.23033800
H        5.21796600       0.49797200       1.06606100
H        3.44805900      -1.43047800      -0.07710800
C        4.27249000       0.17438800       0.60832900
O        4.29254700      -1.10682700       0.34823100
O        3.35586600       0.94677500       0.39223100
H        1.58892400       1.54457800      -1.13265900
H       -0.14316700       1.87768600      -1.34252700
H        1.33934900       3.94207000      -1.56610600
H        0.10024900       4.09911600      -0.31142200
H        2.88242500       3.32586400       0.26867700
H        2.14116500       4.74244100       0.69012600
H        0.67929200       0.49714700       0.68219300
H        1.09289500       2.01997700       1.28111600
C        0.73060100       2.07472200      -0.72082800
C        1.01807500       3.56675300      -0.58469500
N        0.47672100       1.51484400       0.63208300
N        1.99058700       3.76242200       0.48736700
H       -0.52188200       1.63800800       0.89098400
N       -1.72442400      -2.64741000       1.51527000
H       -2.13011400      -3.34552500       2.13029600
H       -2.42464900      -1.89885800       1.25209600
H       -0.92024200      -2.17761900       1.94365000
37
1sa1msa1fa1eda1am-6
S        0.71541400      -1.70281100       0.75295200
O        2.12079000      -1.83310800       1.15047400
O        0.12257700      -0.64324900       1.79317700
O        0.54517800      -1.07806400      -0.59552200
O       -0.08734500      -2.93596600       0.86574700
H        0.77193700       0.74923000      -0.56654400
H       -1.24410300      -3.01580000      -0.45977300
S       -2.98890700       0.52048200      -0.20678400
O       -3.42627000      -0.75517800      -0.83978800
O       -2.26384200       1.40952000      -1.15074500
O       -2.25029100       0.31025100       1.06471500
H       -0.81012600      -0.41185000       1.54001100
C       -4.49251900       1.36915000       0.22810600
H       -5.05040900       1.55406300      -0.68981600
H       -5.05918800       0.73094200       0.90585700
H       -4.22338200       2.30719000       0.71347200
H        4.80185500      -0.19637600      -2.01103500
H        3.27811600      -1.50299100       0.01768500
C        4.01495200      -0.25011500      -1.24553300
O        3.99966100      -1.42431900      -0.66979300
O        3.28011700       0.68923200      -0.99917900
H       -0.07406800       3.34496800       0.60012500
H        0.03678700       1.78314600       1.45142300
H        2.01305700       3.32036300       1.91339800
H        2.48063400       1.77390000       1.20272800
H        2.89956100       4.32704900       0.07817800
H        3.32073700       2.85207300      -0.54230300
H       -0.56799100       1.66188300      -0.93621900
H        1.00734500       2.25109500      -1.26674100
C        0.49864300       2.41939700       0.69786000
C        1.96363300       2.71674400       1.00174200
N        0.41986200       1.72411800      -0.61140200
N        2.56625100       3.39935900      -0.14443000
N       -1.60715000      -2.64117900      -1.36370400
H       -1.90362400      -3.37565800      -1.99824600
H       -0.80673500      -2.11179600      -1.72848000
H       -2.38011600      -1.94426300      -1.17139700
