1gca_1a.log
 OpenBabel02281910273D
Gaussian groups/kemi/kmacke/programs/G09D/g09/g09 # opt freq wb97xd/6-31++g(d,p)
 13 11  0  0  0  0  0  0  0  0999 V2000
   -2.5650   -0.4801   -0.0000 O   0  0  0  0  0  0  0  0  0  0  0  0
    0.6422    1.1090    0.0001 O   0  0  0  0  0  0  0  0  0  0  0  0
    0.0391   -1.0601   -0.0001 O   0  0  0  0  0  0  0  0  0  0  0  0
   -1.6778    0.6021    0.0000 C   0  0  0  0  0  0  0  0  0  0  0  0
   -0.2382    0.1296   -0.0001 C   0  0  0  0  0  0  0  0  0  0  0  0
   -1.8318    1.2329   -0.8848 H   0  0  0  0  0  0  0  0  0  0  0  0
   -1.8316    1.2327    0.8850 H   0  0  0  0  0  0  0  0  0  0  0  0
   -2.0216   -1.2815   -0.0001 H   0  0  0  0  0  0  0  0  0  0  0  0
    1.5746    0.7187    0.0001 H   0  0  0  0  0  0  0  0  0  0  0  0
    2.9939   -0.2061    0.0001 N   0  0  0  0  0  0  0  0  0  0  0  0
    3.5860   -0.1397   -0.8211 H   0  0  0  0  0  0  0  0  0  0  0  0
    2.5473   -1.1208    0.0000 H   0  0  0  0  0  0  0  0  0  0  0  0
    3.5859   -0.1398    0.8213 H   0  0  0  0  0  0  0  0  0  0  0  0
  1  4  1  0  0  0  0
  2  9  1  0  0  0  0
  3  5  2  0  0  0  0
  4  7  1  0  0  0  0
  5  4  1  0  0  0  0
  5  2  1  0  0  0  0
  6  4  1  0  0  0  0
  8  1  1  0  0  0  0
 10 13  1  0  0  0  0
 11 10  1  0  0  0  0
 12 10  1  0  0  0  0
M  END
$$$$
