1sa_2a_2gca.log
 OpenBabel02281910273D
Gaussian groups/kemi/kmacke/programs/G09D/g09/g09 # opt freq wb97xd/6-31++g(d,p)
 33 28  0  0  0  0  0  0  0  0999 V2000
   -2.1307    0.1031   -0.1813 S   0  0  0  0  0  0  0  0  0  0  0  0
   -3.3007   -0.2064    0.6256 O   0  0  0  0  0  0  0  0  0  0  0  0
   -1.8787   -0.8465   -1.3038 O   0  0  0  0  0  0  0  0  0  0  0  0
   -0.8348   -0.0149    0.7785 O   0  0  0  0  0  0  0  0  0  0  0  0
   -2.0280    1.5050   -0.6701 O   0  0  0  0  0  0  0  0  0  0  0  0
   -0.9886   -0.7765    1.4348 H   0  0  0  0  0  0  0  0  0  0  0  0
   -0.8144    1.5150   -1.8980 H   0  0  0  0  0  0  0  0  0  0  0  0
   -1.5241   -2.0543    2.3487 N   0  0  0  0  0  0  0  0  0  0  0  0
   -1.2925   -2.1225    3.3336 H   0  0  0  0  0  0  0  0  0  0  0  0
   -1.3070   -2.9396    1.9015 H   0  0  0  0  0  0  0  0  0  0  0  0
   -2.5264   -1.8959    2.2620 H   0  0  0  0  0  0  0  0  0  0  0  0
    3.1740   -1.3120    0.0701 O   0  0  0  0  0  0  0  0  0  0  0  0
   -0.0926   -2.5672   -0.6163 O   0  0  0  0  0  0  0  0  0  0  0  0
    1.2420   -1.1428   -1.7377 O   0  0  0  0  0  0  0  0  0  0  0  0
    2.1226   -2.2461    0.1769 C   0  0  0  0  0  0  0  0  0  0  0  0
    1.0334   -1.9347   -0.8303 C   0  0  0  0  0  0  0  0  0  0  0  0
    2.4877   -3.2675    0.0116 H   0  0  0  0  0  0  0  0  0  0  0  0
    1.6876   -2.1950    1.1799 H   0  0  0  0  0  0  0  0  0  0  0  0
    3.0343   -0.8287   -0.7632 H   0  0  0  0  0  0  0  0  0  0  0  0
   -0.8455   -2.0472   -1.0420 H   0  0  0  0  0  0  0  0  0  0  0  0
    0.1173    1.3645   -2.3490 N   0  0  0  0  0  0  0  0  0  0  0  0
    0.8441    1.7310   -1.7002 H   0  0  0  0  0  0  0  0  0  0  0  0
    0.1701    1.8031   -3.2629 H   0  0  0  0  0  0  0  0  0  0  0  0
    0.2813    0.3479   -2.4081 H   0  0  0  0  0  0  0  0  0  0  0  0
    0.0109    3.1576    0.3520 O   0  0  0  0  0  0  0  0  0  0  0  0
    2.3244    0.7610    1.6682 O   0  0  0  0  0  0  0  0  0  0  0  0
    2.0536    1.4686   -0.4304 O   0  0  0  0  0  0  0  0  0  0  0  0
    0.7816    2.5388    1.3366 C   0  0  0  0  0  0  0  0  0  0  0  0
    1.7683    1.5424    0.7551 C   0  0  0  0  0  0  0  0  0  0  0  0
    1.3700    3.3056    1.8553 H   0  0  0  0  0  0  0  0  0  0  0  0
    0.1794    2.0146    2.0850 H   0  0  0  0  0  0  0  0  0  0  0  0
   -0.7961    2.6361    0.1965 H   0  0  0  0  0  0  0  0  0  0  0  0
    2.8586    0.0763    1.1995 H   0  0  0  0  0  0  0  0  0  0  0  0
  1  2  1  0  0  0  0
  1  4  1  0  0  0  0
  3  1  2  0  0  0  0
  4  6  1  0  0  0  0
  5  1  2  0  0  0  0
  8  9  1  0  0  0  0
 10  8  1  0  0  0  0
 11  8  1  0  0  0  0
 12 15  1  0  0  0  0
 14 16  2  0  0  0  0
 15 18  1  0  0  0  0
 16 13  1  0  0  0  0
 16 15  1  0  0  0  0
 17 15  1  0  0  0  0
 19 12  1  0  0  0  0
 20 13  1  0  0  0  0
 21  7  1  0  0  0  0
 21 22  1  0  0  0  0
 23 21  1  0  0  0  0
 24 21  1  0  0  0  0
 25 28  1  0  0  0  0
 27 29  2  0  0  0  0
 28 30  1  0  0  0  0
 28 31  1  0  0  0  0
 29 28  1  0  0  0  0
 29 26  1  0  0  0  0
 32 25  1  0  0  0  0
 33 26  1  0  0  0  0
M  RAD  1   2   2
M  END
$$$$
