25
1eda1tma-03
N       -1.58524000      -0.00630400       0.05541000
C       -1.98934300      -0.60574300       1.31531400
H       -1.19912200      -1.26851700       1.68020500
H       -2.15472200       0.17531200       2.06349100
H       -2.91881700      -1.19863700       1.22167700
C       -2.59390700       0.91485800      -0.44010100
H       -2.78135900       1.69523300       0.30371900
H       -2.23652600       1.39248100      -1.35752800
H       -3.55352100       0.41152400      -0.66317100
C       -1.26778000      -1.02206800      -0.93753700
H       -0.89949000      -0.53967800      -1.84762400
H       -0.47746000      -1.67940800      -0.56359600
H       -2.14587100      -1.64218800      -1.19808100
H        1.09369300      -0.79937900       1.03332500
H        2.81605300      -0.84826600       1.37442300
H        1.97659700       1.44874200       1.50722300
H        3.11423700       1.31326400       0.15412800
H        0.19092100       1.17872000      -0.15795800
H        1.16216500       2.43842900      -0.62185600
H        1.78266500      -0.77646000      -1.34842900
H        3.27547200      -1.21287800      -0.86849400
C        2.07793700      -0.51873200       0.63555900
C        2.12083900       1.00648300       0.50640600
N        2.29496400      -1.25003100      -0.60800800
N        1.12864900       1.43675300      -0.47444500
25
1eda1tma-01
N        1.95727700      -0.05025800      -0.00211800
C        2.23486300       0.90292800       1.06119200
H        1.31478300       1.43388100       1.32190500
H        2.58819100       0.37324500       1.95075700
H        3.00250900       1.64434800       0.77070200
C        3.12699900      -0.85164400      -0.31893800
H        3.46476700      -1.38339400       0.57525200
H        2.87236100      -1.59294700      -1.08182400
H        3.96870600      -0.24053100      -0.69641000
C        1.44339200       0.62733600      -1.18186100
H        1.20802300      -0.10806600      -1.95709800
H        0.52376300       1.16136000      -0.92326700
H        2.16647700       1.35326100      -1.59922800
H       -3.65163000      -0.65072900       0.82661600
H       -3.78983900      -0.71526200      -0.92356800
H       -1.88123800      -2.06949900      -0.22480100
H       -1.29201400      -0.66036600      -1.11397200
H       -1.19674400      -0.97456800       1.79106900
H        0.04587800      -0.67158200       0.74551400
H       -2.48723100       1.46453900       0.51729400
H       -2.88690300       1.44946500      -1.06426000
C       -3.16670300      -0.33450000      -0.10645700
C       -1.77555500      -0.97237500      -0.17970700
N       -3.17658100       1.12233300      -0.14744200
N       -0.94467100      -0.50687900       0.92669400
25
1eda1tma-06
N       -1.57676900      -0.00933800      -0.02574000
C       -1.86141700       1.24781300      -0.69693700
H       -1.02383700       1.93512700      -0.55145100
H       -1.99394200       1.07616300      -1.76955600
H       -2.77739300       1.73153200      -0.30715900
C       -2.66058900      -0.95952000      -0.20380800
H       -2.82775600      -1.13679300      -1.27052400
H       -2.39825400      -1.91281400       0.26515700
H       -3.60986000      -0.60533400       0.24144400
C       -1.28307600       0.21012000       1.38305800
H       -1.04348400      -0.74539800       1.86052100
H       -0.41289800       0.86732100       1.46725700
H       -2.13790600       0.66110800       1.92199600
H        3.40924500       0.25922900      -0.73969700
H        3.28768900       0.62474300       0.99530700
H        2.81034400      -1.75240600       0.42104300
H        1.49192600      -0.95394300       1.29152500
H        1.04708900      -2.32463600      -0.88404300
H        0.22949000      -0.91737500      -0.65927400
H        2.14379500       2.30481300      -0.22658900
H        1.22318800       1.19858900      -0.99381000
C        2.70786500       0.35955900       0.10363100
C        2.03053100      -0.98793900       0.33148200
N        1.70053500       1.39877600      -0.11839500
N        1.15947300      -1.32231200      -0.79396600
