68
4sa2ma2tma-35
S       -1.83499900       2.55041200      -0.26617600
O       -1.14472200       2.81635700       1.01278100
O       -1.80721300       3.64679300      -1.22267900
O       -0.92613700       1.40380500      -1.00813700
O       -3.15261900       1.89298400      -0.07458400
H       -3.17505400       0.79576500       1.13426100
H       -0.95303600       0.59696400      -0.43907400
S        1.46347400      -2.08825000      -1.72408700
O        1.18922000      -2.98650400      -0.58299300
O        1.10438800      -2.62175500      -3.03010900
O        0.86614500      -0.73041800      -1.48578900
O        3.04622400      -1.84580600      -1.77303000
H        3.31904100      -1.47131900      -0.90041000
H        1.23413000       0.02782500      -0.15974100
S        2.79224000       0.41971800       1.34756400
O        1.43695800       0.74168600       0.52235100
O        2.27879800       0.07462500       2.70793600
O        3.38306700      -0.76794700       0.69506900
O        3.57079900       1.64788900       1.28938100
H        0.98617400       1.84883200      -1.27852300
S       -2.29522400      -1.16783800       1.52517700
O       -1.34255200      -0.80792500       0.42348500
O       -3.05095700       0.17969300       1.91753600
O       -3.25974500      -2.17913700       1.11672200
O       -1.53442500      -1.47412800       2.76523600
C       -0.63768800       1.99185900       4.22824800
N       -0.29742500       1.14828400       3.06353900
H       -0.56165900       1.64265100       2.18644000
H        0.71081200       0.91045500       3.01486800
H       -1.70981800       2.18435100       4.21660000
H       -0.35983600       1.47408800       5.14598800
H       -0.09520800       2.93345200       4.15306700
H       -0.80772000       0.25082200       3.08801600
C        1.61279400      -3.67299600       2.66356400
N        1.03660200      -2.43724000       2.09367600
H        0.05682300      -2.27467000       2.38364300
H        1.57482600      -1.60193400       2.38512700
H        1.03516400      -4.52798000       2.31406100
H        2.64336100      -3.76422100       2.32241100
H        1.58292900      -3.62200800       3.75179000
H        1.05916300      -2.49422100       1.05063900
N        1.58632000       2.49670100      -1.81119100
C        0.84732800       2.80861700      -3.06175200
C        1.76009400       3.69586600      -0.94552900
C        2.88182900       1.81953600      -2.08835600
H        2.23756500       3.37564400      -0.01870900
H        2.38953000       4.41564900      -1.47291000
H        0.77644100       4.12051500      -0.74249600
H        0.71023700       1.87933600      -3.61547400
H       -0.12025100       3.23673400      -2.79571100
H        1.43724100       3.51506700      -3.64905900
H        2.67881000       0.84857500      -2.54049900
H        3.46081600       2.45007500      -2.76609800
H        3.41864600       1.69159700      -1.14863000
N       -2.25601800      -1.46612200      -2.14835400
C       -1.66605200      -0.83441300      -3.35865200
C       -2.25702900      -2.95212200      -2.22882400
C       -3.61477500      -0.92492500      -1.86630200
H       -2.60992200      -3.34003200      -1.27252700
H       -2.92517300      -3.25740300      -3.03682300
H       -1.23976300      -3.29084200      -2.42910200
H       -1.58374700       0.23624200      -3.17089400
H       -0.68127500      -1.26547000      -3.53709400
H       -2.33180900      -1.02883800      -4.20238600
H       -3.53536500       0.14871500      -1.68529500
H       -4.25233000      -1.12544700      -2.72963300
H       -4.00527700      -1.41898300      -0.97642500
H       -1.67551600      -1.22624600      -1.32251600
68
4sa2ma2tma-17
S       -0.02496900      -3.08493600      -0.32857200
O       -0.93848900      -3.19819100       0.82222100
O        0.82078300      -4.23201000      -0.61197100
O       -0.93785300      -2.87114600      -1.63074900
O        0.79025600      -1.81688700      -0.23878400
H        0.94863800      -1.05058500       1.12642900
H       -1.76814400      -2.38880500      -1.39097100
S       -3.63372500      -0.11440300      -1.08333800
O       -2.81138300       0.69715200      -2.00423100
O       -3.17402100      -1.51672800      -0.99090500
O       -3.88303800       0.50004300       0.22606900
O       -5.11369000      -0.16567400      -1.73959100
H       -5.04609800      -0.56046700      -2.61986300
S        2.73495200       1.91149300      -0.86774500
O        1.40923800       2.52664700      -1.18257500
O        2.58976000       0.42923600      -0.90547900
O        3.85905200       2.42233800      -1.62946700
O        3.06136000       2.30234900       0.65307100
H        2.28654900       2.11508500       1.24321400
S        0.14839600       0.68282900       2.10133400
O       -0.61520600       0.71198500       0.82430500
O        0.96711600       1.89836700       2.28871300
O       -0.70358000       0.37196400       3.26049900
O        1.18602400      -0.52120600       1.94741400
C       -3.61981200      -2.10946700       2.70141700
N       -2.58162200      -1.29903300       2.03506900
H       -1.97446600      -0.77659600       2.69314900
H       -1.96403600      -1.91163400       1.46701200
H       -4.25429800      -1.46104000       3.30525200
H       -4.21747200      -2.60510800       1.93702100
H       -3.13934300      -2.85605800       3.33300100
H       -3.00559800      -0.59899300       1.40408500
C        0.48498000      -0.25116200      -3.27792200
N       -0.02391700       0.23788300      -1.98152900
H        0.42288100       1.13655200      -1.71954600
H       -1.04889800       0.35811700      -1.98615800
H        1.57126700      -0.30587100      -3.21349100
H        0.06916100      -1.24041400      -3.46800400
H        0.19273700       0.44142000      -4.06744600
H        0.23156600      -0.42599400      -1.23001800
N       -1.04843500       3.40958600       0.23110400
C       -2.22689000       3.28684000       1.13023300
C       -0.09494700       4.44946000       0.69937900
C       -1.46196400       3.62646300      -1.17989100
H        0.76592400       4.44340800       0.03217500
H       -0.60247800       5.41652100       0.68461900
H        0.22368500       4.18986600       1.70841400
H       -2.84727700       2.45804600       0.78479600
H       -1.87117100       3.08386600       2.14091800
H       -2.78221600       4.22691300       1.10626000
H       -2.09319900       2.79089600      -1.48948700
H       -2.01846700       4.56430300      -1.23921000
H       -0.56206400       3.67637800      -1.79234100
H       -0.56769900       2.49077000       0.27323100
N        3.75720300      -1.69145200       0.20925300
C        3.43532700      -2.58061300       1.35394800
C        3.90403900      -2.45877400      -1.05490600
C        4.94106200      -0.83745300       0.48676300
H        4.04175100      -1.74543500      -1.86734200
H        4.77132400      -3.11716600      -0.96970200
H        2.99518800      -3.04180000      -1.21056200
H        3.19122900      -1.96444100       2.21882700
H        2.58223400      -3.20209100       1.08468500
H        4.30499400      -3.20832800       1.55983800
H        4.73522000      -0.23805600       1.37376700
H        5.81107500      -1.47740900       0.64741500
H        5.09628000      -0.17229400      -0.36215100
H        2.98274300      -1.01986900       0.03560900
68
4sa2ma2tma-18
S       -0.00039800      -3.08407900      -0.35031100
O       -0.91742100      -3.20206400       0.79698100
O        0.85921700      -4.22286500      -0.62555000
O       -0.90791100      -2.88133300      -1.65713500
O        0.80205000      -1.80770900      -0.25880300
H        0.93456900      -1.04192400       1.11097100
H       -1.74096400      -2.40832000      -1.41318200
S       -3.62479900      -0.13343500      -1.07440000
O       -3.95398100       0.47537600       0.22924700
O       -2.81711800       0.75276000      -1.93871700
O       -3.11346500      -1.50570500      -0.95478100
O       -5.02943300      -0.35047300      -1.85361400
H       -5.41872900       0.51616000      -2.03185500
S        2.73519700       1.91274800      -0.84173200
O        1.40408600       2.53155700      -1.12657900
O        2.59779500       0.43210800      -0.92615200
O        3.85124200       2.45331000      -1.59468200
O        3.07160800       2.25867100       0.68770300
H        2.28434200       2.12588000       1.27433600
S        0.11833300       0.68029500       2.09100500
O       -0.64269100       0.71083400       0.81426800
O        0.93524400       1.89832300       2.27962100
O       -0.73454300       0.36919500       3.25006300
O        1.15790800      -0.52108200       1.94051100
C       -3.59623400      -2.19102800       2.67805700
N       -2.58697700      -1.33283800       2.02716100
H       -1.99159300      -0.80780900       2.69380200
H       -1.95363800      -1.91485600       1.44459500
H       -4.24958600      -1.57705400       3.29761500
H       -4.17886200      -2.68947300       1.90392700
H       -3.08937200      -2.93519700       3.29157000
H       -3.03499300      -0.63486000       1.41225400
C        0.44600600      -0.14666900      -3.32416500
N       -0.02699400       0.25194300      -1.98500000
H        0.42162400       1.13534600      -1.67558500
H       -1.05114900       0.36857700      -1.95468300
H        1.53407700      -0.19537900      -3.29778000
H        0.03064100      -1.12478000      -3.56671100
H        0.12363600       0.59182200      -4.05839000
H        0.25916100      -0.45455300      -1.28221300
N       -1.04040400       3.42577500       0.23243800
C       -0.10443400       4.46494100       0.73573900
C       -1.43846400       3.67087500      -1.17848400
C       -2.22807000       3.26936000       1.11321500
H       -2.06796000       2.84170700      -1.50749200
H       -1.99071400       4.61202900      -1.22576600
H       -0.53216400       3.72819900      -1.78064900
H        0.20898800       4.18231500       1.74015200
H        0.76209800       4.48654500       0.07631100
H       -0.62328200       5.42613000       0.74128000
H       -1.88325200       3.06250600       2.12676800
H       -2.80084700       4.19915700       1.09141300
H       -2.82757700       2.43129300       0.75287900
H       -0.54565400       2.51452900       0.25663900
N        3.75338200      -1.69598500       0.20611000
C        3.43089400      -2.55328900       1.37469200
C        3.90688700      -2.49964600      -1.03502200
C        4.93308000      -0.83095300       0.46330600
H        4.04683700      -1.81046400      -1.86774200
H        4.77540800      -3.15272500      -0.92628500
H        3.00034900      -3.08961600      -1.17748900
H        3.18109800      -1.91336200       2.22066600
H        2.58065000      -3.18518100       1.12093000
H        4.30164900      -3.17203400       1.60199500
H        4.71913500      -0.20029800       1.32632400
H        5.80253900      -1.46388900       0.65249200
H        5.09430900      -0.19494200      -0.40641100
H        2.97416600      -1.03500300       0.01425500
