29
1sa1nta1am1tma-11
S        0.57318000      -1.63672600       0.10372200
O        0.21288700      -0.50059500      -0.81566100
O        0.62194300      -0.96632700       1.56773200
O       -0.46597800      -2.64896400       0.21081800
O        1.93681000      -2.11046800      -0.21460900
H        2.77610100      -0.78896200      -0.92890600
N        0.95443900       2.10317900       0.37192100
O       -0.10689300       2.28532400       0.97768500
O        1.17003400       2.57049700      -0.75200800
O        1.86694800       1.38507500       0.92779800
H        1.09428100      -0.09815300       1.51332100
N       -2.29564500       0.21755300      -0.28853500
C       -2.62544900       1.56605200      -0.81079000
H       -1.98363700       2.29206600      -0.30986800
H       -2.42872000       1.58346300      -1.88334700
H       -3.68113700       1.77422400      -0.62075100
C       -3.02992300      -0.86389300      -0.99094000
H       -2.84016100      -0.77746300      -2.06118800
H       -2.64983900      -1.82155400      -0.63170400
H       -4.09878700      -0.76249200      -0.78938900
C       -2.47561200       0.12963500       1.18536100
H       -2.16834300      -0.86479400       1.51022600
H       -1.83559500       0.87784800       1.65195800
H       -3.52744900       0.30713000       1.42200300
H       -1.26969200       0.03630600      -0.48434500
N        2.96990600       0.20692900      -1.19660000
H        3.91935200       0.35613100      -1.52265300
H        2.73413100       0.79330300      -0.34469900
H        2.28762900       0.47984500      -1.90355400
29
1sa1nta1am1tma-22
S        1.62044200      -1.25703600      -0.06679900
O        0.43896900      -2.10810700      -0.08279100
O        2.93016200      -1.85602200       0.01857600
O        1.64375100      -0.34732700      -1.37065100
O        1.38190300      -0.21587500       1.07894500
H        0.80764000       0.20018400      -1.40931900
H        2.09923900       0.57703700       1.03448500
N       -0.47012700       2.03004900      -0.40196200
O       -0.62959800       0.96883400      -1.12588300
O        0.52756000       2.72509000      -0.58657000
O       -1.33293200       2.29407200       0.44123000
H       -1.74695800       0.02964700      -0.36236100
N       -2.49697900      -0.54071000       0.11882400
C       -3.73788200       0.26899900       0.06522300
H       -3.54902600       1.22052200       0.56024600
H       -3.99218800       0.45074500      -0.97957400
H       -4.54481900      -0.27773000       0.55851800
C       -2.63496400      -1.81879500      -0.62436900
H       -2.91568900      -1.59529800      -1.65442200
H       -1.67347600      -2.33066700      -0.60460600
H       -3.41012700      -2.42423300      -0.14901800
C       -2.04110100      -0.75941500       1.51716200
H       -1.10642900      -1.31865000       1.48833300
H       -1.87402800       0.21514800       1.97531800
H       -2.81238100      -1.31466700       2.05638300
N        2.98145900       1.75687400       0.80843300
H        2.37971200       2.42677800       0.32864700
H        3.74174800       1.50604800       0.18298400
H        3.37441300       2.19417000       1.63516400
29
1sa1nta1am1tma-33
S       -0.75438400      -1.67563100      -0.10774000
O       -2.14244500      -1.82404300      -0.55641800
O        0.09357600      -2.85462500      -0.08346300
O       -0.01342200      -0.71984700      -1.23867000
O       -0.66534700      -0.84706700       1.13842900
H       -2.18242000       0.01375000       1.27302400
N       -0.72827700       2.23527800      -0.33637800
O        0.45413300       2.35387600      -0.68940200
O       -1.16637500       2.74283600       0.70114500
O       -1.51838200       1.53340800      -1.06578700
H       -0.58489100       0.07187700      -1.40565100
N        2.30152600       0.07166000       0.15009800
C        2.84356000      -1.30092500       0.33826600
H        2.13814600      -1.88139600       0.93185300
H        2.94614700      -1.77427500      -0.63787900
H        3.81355600      -1.22713100       0.83435700
C        3.17238900       0.89240600      -0.72888700
H        3.27802600       0.38479300      -1.68798900
H        2.69954400       1.86205300      -0.87423500
H        4.14878600       1.00265700      -0.25243200
C        2.04067500       0.74035100       1.45460100
H        1.60578900       1.71982400       1.25616800
H        1.32911400       0.12784500       2.00728400
H        2.98848100       0.83297700       1.98969600
H        1.38990000      -0.04027100      -0.34267400
N       -3.04962000       0.41546300       0.84344700
H       -3.59492100       0.97114400       1.49412500
H       -3.56225900      -0.37870000       0.45833800
H       -2.68190000       1.00083700       0.04913300
