12
1nta1ma-1
N        1.87204100      -0.45396700      -0.49511700
H        1.82335300       0.03887400      -1.38260700
H        0.39393900      -0.81229700      -0.13392500
C        2.39677500       0.43698600       0.55208900
H        2.42553700      -0.10628900       1.49893900
H        3.39934400       0.81799200       0.33158000
H        1.70993200       1.27808200       0.66165400
H        2.47989500      -1.25659000      -0.62916100
N       -1.31830700       0.07379200      -0.01411100
O       -0.58830900      -1.04346100       0.14722900
O       -2.49012800      -0.01892500       0.25469600
O       -0.73266100       1.07232900      -0.41372800
12
1nta1ma-3
N        1.94635200       0.72323100       0.00276000
H        2.30824700       1.21758500      -0.80822800
C        2.40680100      -0.67592400      -0.00350800
H        3.49859900      -0.76503600      -0.00429300
H        2.00240800      -1.18423900       0.87239400
H        2.00180300      -1.17667500      -0.88350500
H        2.30625700       1.20962000       0.81942500
N       -1.34211400      -0.09623400       0.00025600
O       -0.68594200      -1.12723100       0.00378700
O       -2.54426000       0.00138100      -0.00203400
O       -0.66246100       1.06602700      -0.00133500
H        0.35351700       0.84389200       0.00079300
12
1nta1ma-2
N        1.77186700      -0.47103000       0.00054600
H        1.74352700      -1.08378300       0.81079300
H        1.73745100      -1.07909700      -0.81298600
C        2.99134800       0.34834400      -0.00162700
H        2.98502400       0.99387800      -0.88229900
H        2.99151100       0.98878400       0.88278100
H        3.91210100      -0.24510400      -0.00670700
H        0.42235600       0.32719600       0.00581500
N       -1.47544600      -0.00143500       0.00018100
O       -1.17823800      -1.18866900       0.00050300
O       -2.58596800       0.46862800      -0.00271100
O       -0.46266900       0.88445500       0.00311700
