32
2sa2am1dma-10
S       -1.25286900      -1.41882300      -0.38576400
O       -1.23273700      -0.66389800       1.04032500
O       -0.11166600      -2.35574900      -0.39926800
O       -1.05344300      -0.32525600      -1.39810900
O       -2.57782300      -2.01623000      -0.44029900
H        0.32864400       0.65373500      -1.40957600
H       -0.39969700      -0.12048100       1.13086100
S        1.10283700       1.90899200       0.17032200
O        1.12511400       1.23611700      -1.30277000
O        1.02200700       0.71327600       1.09778500
O        2.35813200       2.61960700       0.26753200
O       -0.13447900       2.70474600       0.26482500
H       -1.77675400       2.23484000      -0.09779300
H        2.03025800      -0.54276200       0.60461100
N       -2.60010800       1.79528900      -0.55995400
H       -3.08949000       2.47719400      -1.13142200
H       -3.25447700       1.32108400       0.13366200
H       -2.19486200       1.03652100      -1.14172100
N       -4.13019400       0.15796300       1.10839600
H       -3.63568800       0.08189100       1.99281800
H       -3.94526100      -0.71819200       0.61502700
H       -5.12351700       0.21247600       1.30721400
N        2.38288100      -1.43596700       0.18251200
H        1.51261900      -1.84533900      -0.22581400
C        3.37809200      -1.12942200      -0.86779700
H        2.92878100      -0.42516800      -1.56776900
H        4.25275800      -0.66967700      -0.40558400
H        3.66201300      -2.05202100      -1.37623100
C        2.86370900      -2.33137000       1.25444700
H        3.70067600      -1.85908600       1.77055300
H        2.04498000      -2.50465000       1.95280100
H        3.17981900      -3.28023400       0.81868900
32
2sa2am1dma-7
S       -1.67218300      -1.51092300      -0.10050300
O       -1.15772000      -0.72286800      -1.24649300
O       -0.77200600      -2.61223000       0.28742600
O       -3.03274000      -2.22232000      -0.62245300
O       -2.14598000      -0.66258600       1.00088300
H       -2.79027600      -2.90455300      -1.26333200
H        0.52793800      -0.40216300      -1.31503200
S        1.68004800       1.11102600      -0.29046200
O        1.49282700      -0.21221700      -1.20185200
O        0.90162200       2.19064000      -0.93661300
O        1.05715400       0.76270000       1.02520300
O        3.12544600       1.28417700      -0.24585700
H        3.61106700      -1.94144300      -1.04539400
H       -1.63270400       1.00080100       0.59721000
N        1.62233000      -1.84449200       1.51411300
H        0.81170200      -2.29535700       1.05107300
H        1.41201800      -0.81666800       1.52277800
H        1.73363800      -2.20346700       2.45709900
N        3.90543100      -1.68504000      -0.10715300
H        3.97735600      -0.66445800      -0.11481000
H        4.83125700      -2.07033000       0.04643700
H        2.51429300      -1.95393200       0.94715200
N       -1.55450800       1.98293000       0.26900800
H       -0.65433100       2.05026000      -0.26255100
C       -2.68683600       2.25669000      -0.63828100
H       -2.65341600       1.52547900      -1.44602000
H       -3.62294000       2.15649300      -0.08700100
H       -2.59086400       3.26678700      -1.03930100
C       -1.45885200       2.87389200       1.44300300
H       -2.35684700       2.76597100       2.05341800
H       -0.57485800       2.57988000       2.00879800
H       -1.35636500       3.90538900       1.10285800
32
2sa2am1dma-47
S       -1.66418700       1.12016200      -0.28359900
O       -1.49536800      -0.20400400      -1.19433300
O       -3.10657600       1.31743500      -0.24489900
O       -1.05201400       0.76445800       1.03508600
O       -0.86579400       2.18860900      -0.92580800
H        0.66441900       2.03169000      -0.23256900
H       -1.50319500      -0.79131000       1.55108300
S        1.67522600      -1.54531600      -0.09964400
O        2.33094400      -0.65155700       0.87884500
O        0.74926700      -2.52811100       0.46546900
O        1.13676000      -0.76914700      -1.24369000
O        2.84402600      -2.48904000      -0.70860100
H        3.51568500      -1.92317600      -1.11158700
H       -0.53406600      -0.41540200      -1.30398600
N       -1.72262900      -1.81580100       1.52679100
H       -0.89283600      -2.25839200       1.09317000
H       -2.59242400      -1.91880900       0.92488500
H       -1.86975900      -2.18463600       2.46098100
N       -3.94461200      -1.64403500      -0.17358900
H       -4.00545800      -0.62301500      -0.18491500
H       -4.87845400      -2.02007900      -0.04838700
H       -3.62239400      -1.90666400      -1.10085400
N        1.58276100       1.97472300       0.27086600
H        1.72045600       0.98119900       0.54512400
C        2.66507900       2.34919300      -0.65927900
H        2.62993700       1.66595000      -1.50801700
H        2.50944300       3.37373800      -1.00045600
H        3.62651700       2.26408500      -0.15028300
C        1.49044500       2.80167300       1.49108500
H        1.33679500       3.84375700       1.20690200
H        0.63623700       2.44521900       2.06643100
H        2.41074300       2.69975300       2.06851600
