74
4sa2dma2tma-45
S        0.99071300      -3.06833600       0.40473500
O        1.59522400      -2.65492600       1.72103600
O        0.12060800      -4.23104600       0.49846400
O       -0.05823800      -1.85457900       0.09958600
O        1.96665200      -3.04459700      -0.68779700
H        2.70204700      -1.44777300       1.75455500
H        0.47761700      -1.02352300       0.09775200
S       -0.97645000       1.70047000      -2.26210000
O       -0.00651700       2.71156100      -1.77075400
O       -0.72738300       1.22952400      -3.62161400
O       -0.68509100       0.37698400      -1.37099700
O       -2.38013600       2.06790700      -1.97216500
H       -3.04811400       2.06602700      -0.41553000
H       -0.79523800       0.60258900      -0.40151200
S        2.57960700       0.65787300       1.28012300
O        3.30224300      -0.64824800       1.82018600
O        1.80374400       1.26207600       2.38080400
O        3.64044000       1.49745700       0.72776600
O        1.62938000       0.19387900       0.20688600
S       -2.74675900       0.76040300       1.26691800
O       -3.17189700       0.85854300       2.65397200
O       -3.33643200       2.05569700       0.53815200
O       -1.23925000       0.90051500       1.13824300
O       -3.19801500      -0.42189200       0.51811500
C       -0.05759100      -0.42858900       4.31665800
N       -0.35564900      -1.06177700       3.01190400
C       -1.51153800      -1.99316600       3.04651200
H       -0.54210300      -0.31563300       2.31210700
H        0.14309000      -1.20901600       5.05209500
H        0.81109300       0.21651400       4.18997800
H       -0.92680700       0.15872700       4.61594600
H       -1.27157900      -2.82007200       3.71582400
H       -2.39030400      -1.44830500       3.39176500
H       -1.67616500      -2.36623900       2.03689000
H        0.46098700      -1.59579000       2.65990600
C        1.64224700       4.14084400       0.83910900
N        0.39305400       3.34394200       0.87747800
C       -0.77885900       4.10899900       1.36214800
H        0.19569000       2.99933000      -0.08930800
H        1.85297100       4.51840400       1.84032800
H        2.46264300       3.49956500       0.51738900
H        1.50326800       4.96859100       0.14250500
H       -0.59086400       4.43584500       2.38576700
H       -0.92017200       4.97385200       0.71262500
H       -1.66085300       3.47279500       1.32407700
H        0.54497800       2.50904400       1.46624700
N       -2.38406800      -1.93269000      -1.77163500
C       -2.81145600      -3.11178600      -0.97324500
C       -3.53896500      -1.21338700      -2.37390700
C       -1.37325300      -2.29238700      -2.79758100
H       -3.17206100      -0.31118800      -2.86419800
H       -4.02146700      -1.87569200      -3.09558600
H       -4.22180500      -0.93569400      -1.57306500
H       -1.92803100      -3.58291800      -0.53820700
H       -3.47681400      -2.75855700      -0.18622900
H       -3.33021100      -3.80880100      -1.63488700
H       -0.51240600      -2.73170600      -2.29458500
H       -1.81964800      -3.00993900      -3.48896100
H       -1.08227600      -1.38245700      -3.32338500
H       -1.93441500      -1.27223100      -1.12148500
N        2.77976900      -0.01850600      -2.20892200
C        4.03706300      -0.71778500      -1.83233000
C        1.98529800      -0.80191900      -3.18710000
C        3.02186200       1.37491700      -2.66066000
H        1.07218500      -0.25000200      -3.41667900
H        2.58112000      -0.93799000      -4.09295100
H        1.75838800      -1.76705100      -2.73133500
H        4.54322800      -0.12623300      -1.06850700
H        3.77167900      -1.69656800      -1.42996200
H        4.66461200      -0.81782000      -2.72088000
H        3.56502800       1.89379200      -1.86981400
H        3.60908300       1.35284000      -3.58149500
H        2.05954800       1.86150000      -2.82738300
H        2.22504500       0.05315300      -1.32308800
74
4sa2dma2tma-33
S        1.02190600       0.25794800       2.85841200
O       -0.09738100      -0.83416900       2.42997100
O        1.75753000      -0.28197400       3.99274100
O        0.18009700       1.44578300       3.18159400
O        1.84685600       0.46664500       1.64682600
H        0.62970800       2.56415900       0.03216600
H        0.21748400      -1.41205800       1.68409000
S        1.36128600       0.21834100      -2.61673700
O        0.30031800      -0.74224600      -3.07422300
O        0.97611600       1.60869900      -2.87732300
O        1.38964300       0.04030500      -1.00586300
O        2.71128900      -0.17923300      -2.99617400
H        2.33341000      -1.25091400       0.16887000
H        0.55241400       0.34232700      -0.58579200
S       -1.99625900       1.95462000       0.48017900
O       -0.68825900       1.47757100      -0.06864600
O       -2.06777800       3.41245700       0.50606700
O       -3.12331900       1.26643800      -0.18376200
O       -2.07429700       1.42078000       1.98624100
H       -1.17204100       1.49962500       2.46096100
H       -2.45990300       0.38496400      -1.61277900
S       -0.64061800      -2.86833500      -0.42396700
O        0.50094900      -2.47786900       0.45560000
O       -1.27071800      -4.12273400      -0.04915400
O       -1.59314300      -1.72384900      -0.56489200
O       -0.02192100      -3.09885900      -1.87582800
H        0.17081800      -2.22643500      -2.31620000
H       -2.45807100      -1.43545500       0.85633900
N       -2.97190900      -1.29437700       1.75950900
H       -2.56307200      -0.42599700       2.13824600
C       -4.40669500      -1.07988400       1.46777700
H       -4.49340600      -0.20670800       0.82223200
H       -4.79791600      -1.96964300       0.97188900
H       -4.94088300      -0.91216800       2.40424100
C       -2.70974800      -2.45236100       2.64749300
H       -2.97678900      -3.36613100       2.11557600
H       -1.65133200      -2.46597600       2.89958800
H       -3.30548800      -2.34608600       3.55540800
N       -2.25880100       0.18767800      -2.60992100
H       -1.29746900      -0.20786200      -2.66408600
C       -3.21760600      -0.81978800      -3.10799300
H       -3.11063600      -1.71457100      -2.49542700
H       -4.22984600      -0.41962700      -3.02879900
H       -2.98634700      -1.04728900      -4.14957900
C       -2.27794300       1.47284400      -3.34220000
H       -3.25355800       1.94250500      -3.21163200
H       -1.48871800       2.10387700      -2.93474700
H       -2.07682200       1.28383500      -4.39739700
N        3.25476200      -1.71477700       0.22818800
C        3.31741300      -2.69560100      -0.88804300
C        4.27274000      -0.64602800       0.07098600
C        3.34646500      -2.37821200       1.55487900
H        4.13180900       0.06930500       0.88021200
H        5.26549100      -1.09882200       0.11909200
H        4.11649500      -0.16855500      -0.89719600
H        2.49358400      -3.39814200      -0.77341800
H        3.21951500      -2.15257600      -1.82906000
H        4.27892500      -3.21169000      -0.84188000
H        2.53959200      -3.10663900       1.62553500
H        4.31857200      -2.87059600       1.62895000
H        3.23440600      -1.62586100       2.33629400
N        1.25682400       3.39898300       0.05439400
C        0.77383900       4.29630100      -1.02662000
C        1.08908400       4.01036100       1.39946600
C        2.65120100       2.94601300      -0.17589800
H        1.34491500       3.26752500       2.15493300
H        1.73783300       4.88646100       1.46885300
H        0.04273300       4.29424800       1.51561200
H        0.87294500       3.76614000      -1.97413900
H       -0.27370100       4.52688000      -0.82867600
H        1.37775100       5.20669200      -1.02461200
H        2.71173800       2.50900900      -1.17229300
H        3.31524100       3.80999400      -0.09574500
H        2.88313100       2.19468900       0.57853500
74
4sa2dma2tma-22
S        2.80082500       1.38381600       0.34886300
O        2.86445300       0.74569100       1.67741900
O        4.01876900       1.28926600      -0.44765700
O        1.58399500       0.91673700      -0.40601200
O        2.57449000       2.95130700       0.57319900
H        1.65286200       3.10861400       0.90572800
H       -0.14314100      -1.01898000      -0.15166700
S       -1.05338700       2.36987500       1.55928100
O       -2.25858200       2.27097300       0.72265600
O       -0.04585400       3.28343500       0.92329400
O       -1.27932400       2.58305100       2.98039100
O       -0.34170400       0.91118700       1.50191500
H        0.25282500       0.86305900       0.71155900
S       -0.10470300      -2.98277400       0.74553000
O       -0.73832500      -2.58394600       2.02356400
O        0.57989500      -1.61632800       0.18907200
O        1.03436300      -3.88571300       0.86745100
O       -1.10639900      -3.35606300      -0.28506400
H       -1.32459600      -2.53356400      -1.70433500
S       -1.48967100      -0.46843500      -2.38252900
O       -1.34964800      -0.24498700      -0.89850300
O       -0.29895200       0.06835700      -3.07240700
O       -1.44574300      -2.05540500      -2.57333900
O       -2.77663600      -0.00209000      -2.88224500
C        0.76485500       0.06019100       4.33196300
N        1.15683700      -0.79507200       3.18899000
C        2.10909400      -1.87528400       3.53210700
H        0.32207300      -1.23063700       2.75940900
H        1.66264600       0.52415200       4.74250000
H        0.08049100       0.83141300       3.97663700
H        0.28394600      -0.55971400       5.09037300
H        3.04344600      -1.42522300       3.86910900
H        1.67625800      -2.49698200       4.31666800
H        2.27681100      -2.48502900       2.64401900
H        1.60163900      -0.19431300       2.46752000
C       -1.42117600       3.09382900      -2.34311500
N       -0.07929500       2.72328100      -1.83480600
C        1.04593400       3.36419200      -2.54906800
H       -0.02827000       2.95320800      -0.82039400
H       -1.52731000       2.72803500      -3.36440600
H       -2.16293300       2.62965500      -1.69445000
H       -1.52194400       4.17921400      -2.30364600
H        1.00131100       3.07775600      -3.60071300
H        0.95929000       4.44672100      -2.44943200
H        1.97967200       3.02671700      -2.10061700
H        0.03797500       1.70241600      -1.91165100
N        2.49174100      -1.45774300      -1.94167900
C        3.02194100      -0.51115900      -2.95826200
C        3.55024800      -1.96389500      -1.02530000
C        1.75373200      -2.58188600      -2.57619900
H        3.06810800      -2.57441000      -0.26034700
H        4.25019200      -2.56651900      -1.60792300
H        4.06270400      -1.11133500      -0.57942200
H        2.17616700      -0.13838300      -3.53674800
H        3.52488500       0.30376200      -2.43668800
H        3.72146700      -1.04908700      -3.60156000
H        0.92890700      -2.17588800      -3.15979700
H        2.45074600      -3.12597900      -3.21702600
H        1.37356600      -3.23928800      -1.79485400
H        1.83497100      -0.92247500      -1.35101300
N       -3.66281000      -0.38368000       0.56024000
C       -4.71444700       0.60671800       0.21979100
C       -3.96087300      -1.71735700      -0.02708900
C       -3.41790700      -0.47904300       2.02302600
H       -3.12695000      -2.39059100       0.17743700
H       -4.88113800      -2.09828500       0.42083700
H       -4.08418500      -1.60016800      -1.10468500
H       -4.43244500       1.56641800       0.64913700
H       -4.76526800       0.68542000      -0.86715100
H       -5.66820100       0.25778000       0.62214000
H       -3.17703900       0.51374600       2.40151300
H       -4.32207100      -0.86219200       2.50194700
H       -2.58190400      -1.16303500       2.18302900
H       -2.77669300      -0.06483200       0.11443400
