49
4sa3ma-16
S        0.88995300      -2.24305000      -1.29898800
O        1.52393900      -2.55434800      -0.02138500
O        0.00668600      -3.22952900      -1.88600100
O        0.08802800      -0.90252300      -1.15609900
O        1.97659600      -1.89350000      -2.36737300
H        2.58381900      -1.18654200      -1.99273100
H        0.08321000      -0.53377900      -0.19341300
S       -0.74790800      -0.53114700       2.23392000
O        0.02280700       0.12865700       1.10031600
O       -1.45190300      -1.71886100       1.73284000
O        0.12793700      -0.73128100       3.38456700
O       -1.81915800       0.54080900       2.68521900
H       -2.51711300       0.61435000       1.97642900
S        3.19195200       1.29611100      -0.85337100
O        3.45756900      -0.14113100      -1.10664600
O        2.23950900       1.89528200      -1.79802900
O        2.89579000       1.57766900       0.56178900
O        4.60838500       2.04725900      -1.07377700
H        4.85870400       1.97001400      -2.00507500
S       -3.43316600       1.31223800      -0.59860300
O       -3.05546900       0.49707500      -1.76754700
O       -3.50622700       0.52193100       0.64489700
O       -2.67159400       2.56958300      -0.49065600
O       -4.97715300       1.75259100      -0.81313700
H       -5.01939700       2.35594700      -1.56784700
C        3.94597300      -1.26178600       2.42067800
N        2.61087100      -0.83935300       1.94995700
H        1.88928400      -0.83178600       2.68927100
H        2.64736000       0.10950700       1.53106700
H        3.88439900      -2.27360800       2.82009800
H        4.63317700      -1.23637300       1.57548100
H        4.28750100      -0.57606400       3.19542400
H        2.26169400      -1.46662000       1.20543100
C        0.47367500       3.86711600       0.57659200
N        0.06526400       2.62850900      -0.12166700
H        0.13164900       1.81048100       0.50762000
H       -0.92500800       2.66425600      -0.43003800
H        1.50310400       3.74762200       0.91294600
H        0.39715100       4.70790300      -0.11204800
H       -0.18857100       4.02565300       1.42726000
H        0.69349900       2.42901900      -0.91755800
C       -3.90096700      -2.67071500      -0.67926700
N       -2.55257500      -2.07681800      -0.81028200
H       -1.89250100      -2.67047400      -1.32618300
H       -2.61145300      -1.15426400      -1.28629600
H       -3.82702800      -3.61794300      -0.14603700
H       -4.52097000      -1.97339900      -0.11661700
H       -4.32382700      -2.82872300      -1.67086300
H       -2.14489900      -1.90316300       0.13044400
49
4sa3ma-22
S        0.93015500      -2.26342100      -1.25890400
O        1.55694900      -2.53645700       0.03140000
O        0.05863500      -3.27150700      -1.82587200
O        0.11670800      -0.92608400      -1.15635600
O        2.02200400      -1.93489000      -2.32828300
H        2.62341600      -1.21528900      -1.97086900
H        0.09593100      -0.53735100      -0.20482000
S       -0.75971800      -0.50635100       2.23004200
O        0.00807200       0.14409700       1.08923100
O       -1.44809000      -1.71024700       1.74730400
O        0.11589900      -0.67663200       3.38661900
O       -1.84325600       0.56070700       2.66154300
H       -2.54315700       0.61405900       1.95156500
S        3.17176500       1.30666500      -0.89379200
O        2.97866000       1.62147900       0.54093500
O        3.46963300      -0.13583800      -1.08306700
O        2.13764500       1.85633500      -1.76707300
O        4.50733500       2.08657600      -1.36615500
H        5.27798800       1.65430400      -0.97403000
S       -3.43538300       1.28556800      -0.62080900
O       -3.00608500       0.47345300      -1.77375500
O       -3.52536100       0.49944500       0.62496600
O       -2.70676700       2.56051000      -0.49771600
O       -4.98296800       1.68746600      -0.88027000
H       -5.01855000       2.28652300      -1.63876800
C       -3.87034900      -2.69162500      -0.69361600
N       -2.51984800      -2.09863700      -0.80706700
H       -2.12585400      -1.92023200       0.13833100
H       -1.85252700      -2.69525300      -1.30993200
H       -4.49848500      -1.99172100      -0.14334400
H       -4.27813100      -2.85372100      -1.69083500
H       -3.80468100      -3.63669900      -0.15549900
H       -2.57103700      -1.17777900      -1.28761400
C        0.44930800       3.89207400       0.60205800
N        0.02776600       2.65476200      -0.08934200
H       -0.95955000       2.69649200      -0.40515100
H        0.65877800       2.43918500      -0.88028200
H       -0.20923700       4.06311800       1.45322800
H        1.47850100       3.76465900       0.93674000
H        0.38185500       4.72999600      -0.09102100
H        0.08215000       1.83639300       0.54063300
C        3.90201000      -1.22606200       2.49214800
N        2.59983600      -0.76742700       1.96865000
H        2.25491300      -1.40235300       1.22807500
H        1.85698900      -0.72746800       2.68665400
H        4.61352100      -1.26172200       1.66762900
H        4.25042800      -0.52963600       3.25434900
H        3.78710200      -2.22013100       2.92312800
H        2.67833500       0.17073000       1.53042300
49
4sa3ma-27
S        3.30577900      -1.77096200      -0.59345300
O        3.57696100      -0.90847900       0.55479400
O        4.40829600      -2.29278000      -1.34973100
O        2.40767800      -2.98044400      -0.17537300
O        2.30171000      -0.97420300      -1.54237800
H        2.37408800       0.01329800      -1.38993700
H        1.56818700      -2.68287000       0.29366700
S       -4.02369000      -0.63498900      -0.25233800
O       -3.39804900      -1.76739800       0.46295500
O       -4.31971900       0.51641500       0.62096200
O       -3.31690200      -0.24970600      -1.48643600
O       -5.43532500      -1.19148000      -0.80153600
H       -5.92533100      -1.57413600      -0.06028900
S       -0.21914600      -1.13620600       1.72532600
O       -0.39485200       0.15641400       1.01254500
O        0.10669900      -2.19708200       0.72082100
O        0.72872700      -1.05312600       2.83775100
O       -1.59675900      -1.53150700       2.37972900
H       -2.30230300      -1.63504100       1.67948300
S        1.13975800       2.43314200      -1.01746100
O        2.35194600       1.58815400      -1.10368900
O       -0.01981300       1.83842600      -1.71749800
O        0.84961700       2.90984800       0.33993200
O        1.49316900       3.79983100      -1.80222900
H        1.75350800       3.58436400      -2.70892000
C       -2.21541600       3.53120400       0.92756900
N       -2.11313600       2.17977000       0.33584200
H       -1.74485100       2.20096900      -0.62216000
H       -1.44834000       1.56764300       0.84276800
H       -2.91858600       4.12436400       0.34344700
H       -2.58073500       3.43647200       1.94978900
H       -1.22808200       3.99023700       0.91805600
H       -3.02508400       1.68013300       0.34807800
C        3.31577500       1.81698700       2.85060800
N        2.32527200       1.09116500       2.02951900
H        2.79397500       0.51064500       1.31334800
H        1.75426300       0.41682600       2.57224300
H        3.87933800       2.49304000       2.20849000
H        2.79773100       2.38572600       3.62222600
H        3.99080300       1.09619800       3.31059400
H        1.68598300       1.73459500       1.53571400
C       -0.41660300      -1.76679600      -3.01226100
N       -0.68935300      -1.00459500      -1.77453400
H       -1.70773800      -0.82711900      -1.65691000
H       -0.35562500      -1.50208000      -0.93149900
H       -0.80018400      -1.20670300      -3.86466000
H        0.65780400      -1.91447300      -3.10722400
H       -0.92394200      -2.72892800      -2.94881300
H       -0.24717400      -0.07471100      -1.77688800
