35
1sa1nta1dma1tma-22
S        0.02959500      -1.65867000      -0.35814300
O        1.03119200      -2.70312300      -0.21185300
O        0.17853900      -0.53900000       0.63711400
O        0.37328300      -0.98206600      -1.77858700
O       -1.38476200      -2.08375500      -0.39974400
H       -2.28302000      -0.72048800       0.14572600
N       -0.58006200       1.98770900      -0.69695900
O        0.57341600       2.38852000      -0.89109200
O       -1.21266100       2.31836800       0.33586300
O       -1.14356300       1.22233200      -1.52995700
H       -0.15994700      -0.15016000      -1.86709500
N        2.66378700       0.36553500       0.56155200
C        2.78933600       1.66101700       1.27120900
H        2.19660000       2.40240900       0.73400700
H        2.39634900       1.54322800       2.28178000
H        3.84278500       1.94904600       1.31020300
C        3.33858600      -0.74581500       1.27633900
H        2.95236300      -0.79188400       2.29499700
H        3.09875400      -1.67902300       0.76380400
H        4.41627300      -0.56668800       1.28804500
C        3.11419800       0.45806100      -0.85184000
H        2.93393100      -0.50204800      -1.33531300
H        2.52323600       1.22697000      -1.34876600
H        4.17848700       0.70607800      -0.86765100
H        1.63279600       0.10424600       0.55226900
N       -2.79525700       0.05728900       0.62065300
C       -2.90127700      -0.27973800       2.05314000
C       -4.07976100       0.29033300      -0.06595600
H       -2.20015400       0.91111400       0.51219600
H       -3.48540500      -1.19416900       2.16742800
H       -1.89141800      -0.43772500       2.43168400
H       -3.38120600       0.54332000       2.58542200
H       -4.68446900      -0.61705700      -0.02321400
H       -4.60465500       1.11504800       0.41908800
H       -3.86413100       0.54941900      -1.10234100
35
1sa1nta1dma1tma-33
S        0.21422300      -1.64819800      -0.12221300
O        0.69304500      -0.81883300      -1.42307400
O       -0.88581100      -2.52368800      -0.51851900
O        1.45381700      -2.31469400       0.32041100
O       -0.21564500      -0.58888200       0.84605100
H        2.47415500      -0.91938200       0.45696600
H       -1.73763400      -0.11026600       0.47662000
N        0.12242100       2.30773900      -0.40163000
O        1.35141800       2.16978400      -0.18150500
O       -0.53101500       3.17584100       0.17264400
O       -0.44671200       1.54035700      -1.23792400
H        0.27189200       0.09105800      -1.42246900
N        2.92920400       0.01922700       0.37836500
C        3.89917700      -0.02017200      -0.73547600
C        3.49066800       0.42251500       1.68246000
H        2.17462200       0.69506800       0.12299200
H        4.68966700      -0.73471400      -0.50095200
H        3.36422400      -0.33622500      -1.63084600
H        4.32001500       0.97570800      -0.88071900
H        4.26349400      -0.28789100       1.98015600
H        3.91172400       1.42497200       1.59641300
H        2.68474800       0.42478400       2.41577800
N       -2.78031000       0.00857100       0.33966800
C       -3.40089900      -1.10304800       1.10158000
H       -3.00593500      -2.04139300       0.71007400
H       -3.12755800      -1.00270100       2.15216900
H       -4.48626400      -1.05429200       0.98692300
C       -3.15312400       1.34358200       0.86753200
H       -2.90451500       1.38289000       1.92866800
H       -2.57690300       2.10382600       0.33683400
H       -4.22635600       1.49420700       0.72838800
C       -3.06660000      -0.10851200      -1.11446900
H       -2.55940700       0.70916600      -1.62507300
H       -2.67742500      -1.06669200      -1.46143400
H       -4.14742700      -0.05097700      -1.26433700
35
1sa1nta1dma1tma-44
S       -0.08965100      -1.82688400      -0.16548700
O       -1.26435800      -2.29379600      -0.89838500
O        0.95306600      -2.79018800       0.15742000
O        0.69867900      -0.79318400      -1.19509400
O       -0.46101100      -0.95121900       0.99130900
H       -2.02389100      -0.32331900       0.76380700
N       -0.39909600       2.10623200      -0.72606100
O        0.80831800       2.26610000      -0.96587800
O       -0.97639200       2.71953000       0.18085200
O       -1.05771600       1.26063700      -1.42339100
H        0.06008300      -0.10097100      -1.50287900
N        2.75138000       0.30527800       0.32267300
C        3.63524700       1.27735400      -0.36756600
H        4.01986400       0.81667800      -1.27783100
H        3.05062400       2.16081000      -0.61790700
H        4.46137400       1.53393700       0.29933300
C        2.11851500       0.89440700       1.53571800
H        1.61172100       1.81423400       1.24349300
H        1.38777400       0.17907800       1.91534200
H        2.89962700       1.09672800       2.27204100
C        3.46511000      -0.96095000       0.64065700
H        2.74903900      -1.67503900       1.04831800
H        3.87601500      -1.37121100      -0.28189100
H        4.26589500      -0.74220600       1.35022800
H        1.97436700       0.04875800      -0.32894000
N       -2.84594300       0.23282800       0.42014900
C       -3.35154500       1.10413100       1.49956200
C       -3.85815200      -0.67156100      -0.16744500
H       -2.40249100       0.80504400      -0.32998500
H       -3.71699600       0.48141800       2.31787000
H       -2.53681500       1.74413800       1.83410000
H       -4.16185900       1.72420400       1.11305800
H       -4.26351200      -1.30965100       0.61935300
H       -4.65643700      -0.07496000      -0.61233600
H       -3.36410600      -1.29122500      -0.91493400
